<?xml version="1.0" encoding="UTF-8"?>
<configuration xmlns:xsi="http://www.w3.org/2001/XMLSchema-instance" xsi:noNamespaceSchemaLocation="http://sumo.dlr.de/xsd/sumoConfiguration.xsd">
    <input>
        <net-file value="ottawa.net.xml"/>
        <route-files value="ottawa.rou.xml"/>
        <additional-files value="ottawa.poly.xml"/>
    </input>
    <time>
        <begin value="0"/>
        <end value="300"/>
        <step-length value="0.1"/>
    </time>
    <processing>
        <collision.action value="warn"/>
        <time-to-teleport value="-1"/>
    </processing>
    <gui_only>
        <start value="true"/>
    </gui_only>
</configuration>
