<?xml version="1.0" encoding="UTF-8"?>

<!-- generated on 2026-03-03 21:18:54.798360 by Eclipse SUMO randomTrips.py v1.26.0
<configuration>
    <net-file value="ottawa_sumo/ottawa.net.xml"/>
    <output-trip-file value="ottawa_sumo/ottawa.trips.xml"/>
    <route-file value="ottawa_sumo/ottawa.rou.xml"/>
    <vehicle-class value="passenger"/>
    <fringe-factor value="5"/>
    <end value="300.0"/>
    <period value="1.5"/>
</configuration>
-->

<routes xmlns:xsi="http://www.w3.org/2001/XMLSchema-instance" xsi:noNamespaceSchemaLocation="http://sumo.dlr.de/xsd/routes_file.xsd">
    <vType id="passenger" vClass="passenger"/>
    <trip id="0" depart="0.00" from="644574499#0" to="-1353710965#1" type="passenger"/>
    <trip id="1" depart="1.50" from="-76441878#8" to="-76424129#1" type="passenger"/>
    <trip id="2" depart="3.00" from="76420362#0" to="76419495#2" type="passenger"/>
    <trip id="3" depart="4.50" from="76424346#0" to="-465591289#3" type="passenger"/>
    <trip id="4" depart="6.00" from="300720221#0" to="-152488091#1" type="passenger"/>
    <trip id="5" depart="7.50" from="-76423507#13" to="465591289#0" type="passenger"/>
    <trip id="6" depart="9.00" from="-152627338#3" to="-76422992#2" type="passenger"/>
    <trip id="7" depart="10.50" from="726511587#6" to="504127878#4" type="passenger"/>
    <trip id="8" depart="12.00" from="-76423507#2" to="589692169#0" type="passenger"/>
    <trip id="9" depart="13.50" from="76422525#0" to="-1150048806#4" type="passenger"/>
    <trip id="10" depart="15.00" from="76422495#0" to="76420047#0" type="passenger"/>
    <trip id="11" depart="16.50" from="128191522#9" to="-76420298#9" type="passenger"/>
    <trip id="12" depart="18.00" from="76444617#6" to="1307778176" type="passenger"/>
    <trip id="13" depart="19.50" from="-520390902#3" to="-504127878#3" type="passenger"/>
    <trip id="14" depart="21.00" from="76422495#3" to="76420638#0" type="passenger"/>
    <trip id="15" depart="22.50" from="466806303" to="76445488#0" type="passenger"/>
    <trip id="16" depart="24.00" from="1355702038" to="513904986" type="passenger"/>
    <trip id="17" depart="25.50" from="76423003#0" to="611713886#0" type="passenger"/>
    <trip id="18" depart="27.00" from="76423507#6" to="586139321#0" type="passenger"/>
    <trip id="19" depart="28.50" from="76419740#0" to="-301054181#1" type="passenger"/>
    <trip id="20" depart="30.00" from="-76423774#5" to="-76445363#4" type="passenger"/>
    <trip id="21" depart="31.50" from="-465591290#1" to="-76424504" type="passenger"/>
    <trip id="22" depart="33.00" from="-586139321#1" to="-76444642#0" type="passenger"/>
    <trip id="23" depart="34.50" from="626431573#0" to="139108141#0" type="passenger"/>
    <trip id="24" depart="36.00" from="-76441694#10" to="76441878#10" type="passenger"/>
    <trip id="25" depart="37.50" from="726511587#0" to="611697828#0" type="passenger"/>
    <trip id="26" depart="39.00" from="-76421349#4" to="76420638#0" type="passenger"/>
    <trip id="27" depart="40.50" from="-76420491#11" to="152724891#3" type="passenger"/>
    <trip id="28" depart="42.00" from="834263083#0" to="653424729#0" type="passenger"/>
    <trip id="29" depart="43.50" from="490237093#14" to="76419665#0" type="passenger"/>
    <trip id="30" depart="45.00" from="76423292#9" to="76422422#5" type="passenger"/>
    <trip id="31" depart="46.50" from="-76423774#5" to="-152488091#1" type="passenger"/>
    <trip id="32" depart="48.00" from="108438007#0" to="-76443382#1" type="passenger"/>
    <trip id="33" depart="49.50" from="-76423148#2" to="76442870#0" type="passenger"/>
    <trip id="34" depart="51.00" from="76423863#0" to="128138702#0" type="passenger"/>
    <trip id="35" depart="52.50" from="726518642#7" to="254269857" type="passenger"/>
    <trip id="36" depart="54.00" from="76441437#0" to="397105989#2" type="passenger"/>
    <trip id="37" depart="55.50" from="-76441694#10" to="-76441437#0" type="passenger"/>
    <trip id="38" depart="57.00" from="490237094#4" to="-76441878#6" type="passenger"/>
    <trip id="39" depart="58.50" from="532654950#0" to="76424055#0" type="passenger"/>
    <trip id="40" depart="60.00" from="158612783#0" to="-76423774#4" type="passenger"/>
    <trip id="41" depart="61.50" from="881130908#0" to="467460523" type="passenger"/>
    <trip id="42" depart="63.00" from="-520045235#1" to="-301054181#6" type="passenger"/>
    <trip id="43" depart="64.50" from="-589498761#2" to="623104350#0" type="passenger"/>
    <trip id="44" depart="66.00" from="76422142#3" to="310453065#0" type="passenger"/>
    <trip id="45" depart="67.50" from="-395474007#3" to="152724891#3" type="passenger"/>
    <trip id="46" depart="69.00" from="881130908#0" to="490237094#0" type="passenger"/>
    <trip id="47" depart="70.50" from="76444809#0" to="76423507#3" type="passenger"/>
    <trip id="48" depart="72.00" from="-128191522#10" to="76420491#11" type="passenger"/>
    <trip id="49" depart="73.50" from="756052529#0" to="490237094#9" type="passenger"/>
    <trip id="50" depart="75.00" from="-76441694#10" to="661755805#0" type="passenger"/>
    <trip id="51" depart="76.50" from="-589692169#2" to="345525371" type="passenger"/>
    <trip id="52" depart="78.00" from="31773792#0" to="76444505" type="passenger"/>
    <trip id="53" depart="79.50" from="76423863#0" to="-76441878#6" type="passenger"/>
    <trip id="54" depart="81.00" from="456545665" to="-76422456#1" type="passenger"/>
    <trip id="55" depart="82.50" from="76441437#0" to="76423768#0" type="passenger"/>
    <trip id="56" depart="84.00" from="-76726255#2" to="653424729#0" type="passenger"/>
    <trip id="57" depart="85.50" from="611673989#0" to="-76420160#2" type="passenger"/>
    <trip id="58" depart="87.00" from="76420817" to="491610754#0" type="passenger"/>
    <trip id="59" depart="88.50" from="76421266#0" to="490237094#3" type="passenger"/>
    <trip id="60" depart="90.00" from="-108334753#1" to="128476281#0" type="passenger"/>
    <trip id="61" depart="91.50" from="-1307779068#1" to="76441694#9" type="passenger"/>
    <trip id="62" depart="93.00" from="76423999#10" to="76423268#0" type="passenger"/>
    <trip id="63" depart="94.50" from="-896388849#2" to="-395473995#9" type="passenger"/>
    <trip id="64" depart="96.00" from="76423999#10" to="76443644#0" type="passenger"/>
    <trip id="65" depart="97.50" from="-503127214#1" to="456547551#0" type="passenger"/>
    <trip id="66" depart="99.00" from="-435121083#2" to="76422142#0" type="passenger"/>
    <trip id="67" depart="100.50" from="76420817" to="-726511587#5" type="passenger"/>
    <trip id="68" depart="102.00" from="397105989#0" to="513904986" type="passenger"/>
    <trip id="69" depart="103.50" from="-76441694#10" to="76423774#0" type="passenger"/>
    <trip id="70" depart="105.00" from="301054181#0" to="-76423507#13" type="passenger"/>
    <trip id="71" depart="106.50" from="467460523" to="76420638#0" type="passenger"/>
    <trip id="72" depart="108.00" from="-76422992#10" to="128136611#0" type="passenger"/>
    <trip id="73" depart="109.50" from="881130908#0" to="726518642#2" type="passenger"/>
    <trip id="74" depart="111.00" from="309140493" to="490237088#0" type="passenger"/>
    <trip id="75" depart="112.50" from="-611673987#1" to="-76424129#1" type="passenger"/>
    <trip id="76" depart="114.00" from="128191522#5" to="589692168#0" type="passenger"/>
    <trip id="77" depart="115.50" from="-76423774#5" to="-76423852#5" type="passenger"/>
    <trip id="78" depart="117.00" from="-465172667#2" to="623111428#0" type="passenger"/>
    <trip id="79" depart="118.50" from="-76423774#5" to="76424398#0" type="passenger"/>
    <trip id="80" depart="120.00" from="76423507#14" to="-435112128#3" type="passenger"/>
    <trip id="81" depart="121.50" from="-76423883#1" to="76419221#0" type="passenger"/>
    <trip id="82" depart="123.00" from="-76423335#2" to="-727862828#1" type="passenger"/>
    <trip id="83" depart="124.50" from="76442960#0" to="538377171#0" type="passenger"/>
    <trip id="84" depart="126.00" from="395474061" to="76422432#0" type="passenger"/>
    <trip id="85" depart="127.50" from="76422495#3" to="-76422639" type="passenger"/>
    <trip id="86" depart="129.00" from="-545155169" to="31774272#0" type="passenger"/>
    <trip id="87" depart="130.50" from="301054181#0" to="434333901#0" type="passenger"/>
    <trip id="88" depart="132.00" from="76420298#2" to="76419383#0" type="passenger"/>
    <trip id="89" depart="133.50" from="76843269" to="-504127878#6" type="passenger"/>
    <trip id="90" depart="135.00" from="228627163#0" to="1307779069#0" type="passenger"/>
    <trip id="91" depart="136.50" from="76423507#6" to="-76441437#1" type="passenger"/>
    <trip id="92" depart="138.00" from="-76422495#8" to="395474007#4" type="passenger"/>
    <trip id="93" depart="139.50" from="300720221#0" to="-76444642#2" type="passenger"/>
    <trip id="94" depart="141.00" from="-76424545#2" to="76441374#1" type="passenger"/>
    <trip id="95" depart="142.50" from="310452994#0" to="76423507#6" type="passenger"/>
    <trip id="96" depart="144.00" from="490237089#9" to="-31773792#6" type="passenger"/>
    <trip id="97" depart="145.50" from="896388850" to="76423268#6" type="passenger"/>
    <trip id="98" depart="147.00" from="76444740#0" to="76441437#4" type="passenger"/>
    <trip id="99" depart="148.50" from="76423347" to="-76420757#6" type="passenger"/>
    <trip id="100" depart="150.00" from="410963613#0" to="-76423507#2" type="passenger"/>
    <trip id="101" depart="151.50" from="216953624" to="-395473995#9" type="passenger"/>
    <trip id="102" depart="153.00" from="139108139#0" to="76726255#0" type="passenger"/>
    <trip id="103" depart="154.50" from="-76441694#10" to="76422432#0" type="passenger"/>
    <trip id="104" depart="156.00" from="319810546" to="310453067#0" type="passenger"/>
    <trip id="105" depart="157.50" from="76444617#6" to="834263084#0" type="passenger"/>
    <trip id="106" depart="159.00" from="490237093#13" to="76420471#9" type="passenger"/>
    <trip id="107" depart="160.50" from="-76419809#5" to="108334754#0" type="passenger"/>
    <trip id="108" depart="162.00" from="76444740#0" to="586139321#0" type="passenger"/>
    <trip id="109" depart="163.50" from="467470142#0" to="76421036#2" type="passenger"/>
    <trip id="110" depart="165.00" from="-358713667#2" to="586139322#0" type="passenger"/>
    <trip id="111" depart="166.50" from="456547551#1" to="76423449#0" type="passenger"/>
    <trip id="112" depart="168.00" from="-76420298#1" to="76444617#6" type="passenger"/>
    <trip id="113" depart="169.50" from="-465591291#2" to="-76422495#2" type="passenger"/>
    <trip id="114" depart="171.00" from="589692168#0" to="76419487#0" type="passenger"/>
    <trip id="115" depart="172.50" from="-76423883#1" to="-611697827#1" type="passenger"/>
    <trip id="116" depart="174.00" from="76424341#0" to="-76441437#0" type="passenger"/>
    <trip id="117" depart="175.50" from="589692168#0" to="611713887#0" type="passenger"/>
    <trip id="118" depart="177.00" from="300719590#0" to="586139322#0" type="passenger"/>
    <trip id="119" depart="178.50" from="465369274#0" to="76441878#10" type="passenger"/>
    <trip id="120" depart="180.00" from="-76422992#10" to="76420471#0" type="passenger"/>
    <trip id="121" depart="181.50" from="-76423904#2" to="254269857" type="passenger"/>
    <trip id="122" depart="183.00" from="730778101#0" to="108334761#0" type="passenger"/>
    <trip id="123" depart="184.50" from="108438007#0" to="76421230" type="passenger"/>
    <trip id="124" depart="186.00" from="-465196763#2" to="397105989#2" type="passenger"/>
    <trip id="125" depart="187.50" from="881130909#0" to="851950820#0" type="passenger"/>
    <trip id="126" depart="189.00" from="-465425407#1" to="-76423507#2" type="passenger"/>
    <trip id="127" depart="190.50" from="-76441694#10" to="76441694#9" type="passenger"/>
    <trip id="128" depart="192.00" from="76423999#4" to="76423813#0" type="passenger"/>
    <trip id="129" depart="193.50" from="131908187#6" to="-76420491#1" type="passenger"/>
    <trip id="130" depart="195.00" from="76423108#0" to="76420351#0" type="passenger"/>
    <trip id="131" depart="196.50" from="611697826#0" to="76843154#0" type="passenger"/>
    <trip id="132" depart="198.00" from="726518642#2" to="-1150048807#4" type="passenger"/>
    <trip id="133" depart="199.50" from="76422619#0" to="108334759#0" type="passenger"/>
    <trip id="134" depart="201.00" from="727862828#0" to="76441878#10" type="passenger"/>
    <trip id="135" depart="202.50" from="-630327625#5" to="-611673987#1" type="passenger"/>
    <trip id="136" depart="204.00" from="-586139322#5" to="513904986" type="passenger"/>
    <trip id="137" depart="205.50" from="-76441878#11" to="611697820" type="passenger"/>
    <trip id="138" depart="207.00" from="76419809#0" to="-76423148#2" type="passenger"/>
    <trip id="139" depart="208.50" from="626431573#0" to="-76441878#6" type="passenger"/>
    <trip id="140" depart="210.00" from="434331329#0" to="76424398#0" type="passenger"/>
    <trip id="141" depart="211.50" from="76423347" to="-490051417#1" type="passenger"/>
    <trip id="142" depart="213.00" from="301054181#0" to="-76444617#6" type="passenger"/>
    <trip id="143" depart="214.50" from="-108334762#2" to="76422417#0" type="passenger"/>
    <trip id="144" depart="216.00" from="628707587#0" to="-76441878#6" type="passenger"/>
    <trip id="145" depart="217.50" from="76420491#0" to="513904986" type="passenger"/>
    <trip id="146" depart="219.00" from="301054181#2" to="-1266752445#1" type="passenger"/>
    <trip id="147" depart="220.50" from="-465591286#3" to="76423883#0" type="passenger"/>
    <trip id="148" depart="222.00" from="76441202#0" to="504508174" type="passenger"/>
    <trip id="149" depart="223.50" from="76423108#0" to="586139322#0" type="passenger"/>
    <trip id="150" depart="225.00" from="-76419525#4" to="-726511587#5" type="passenger"/>
    <trip id="151" depart="226.50" from="1028499062#0" to="76424073#0" type="passenger"/>
    <trip id="152" depart="228.00" from="76422456#0" to="76423507#3" type="passenger"/>
    <trip id="153" depart="229.50" from="76424496#2" to="-76423507#11" type="passenger"/>
    <trip id="154" depart="231.00" from="-76424545#2" to="-589498761#2" type="passenger"/>
    <trip id="155" depart="232.50" from="76421349#0" to="76423883#0" type="passenger"/>
    <trip id="156" depart="234.00" from="232381925#0" to="611713891#0" type="passenger"/>
    <trip id="157" depart="235.50" from="-76419809#5" to="76441694#9" type="passenger"/>
    <trip id="158" depart="237.00" from="76423562#0" to="76445552#0" type="passenger"/>
    <trip id="159" depart="238.50" from="76422535#0" to="76423863#0" type="passenger"/>
    <trip id="160" depart="240.00" from="-1375773003" to="76420824#0" type="passenger"/>
    <trip id="161" depart="241.50" from="128138702#0" to="76441694#9" type="passenger"/>
    <trip id="162" depart="243.00" from="76422495#0" to="76423562#0" type="passenger"/>
    <trip id="163" depart="244.50" from="76422535#0" to="-76443312#3" type="passenger"/>
    <trip id="164" depart="246.00" from="76422116#0" to="-589694344#3" type="passenger"/>
    <trip id="165" depart="247.50" from="76423774#0" to="76423507#12" type="passenger"/>
    <trip id="166" depart="249.00" from="-76423507#9" to="76422992#9" type="passenger"/>
    <trip id="167" depart="250.50" from="358713488#0" to="1150048806#0" type="passenger"/>
    <trip id="168" depart="252.00" from="76422422#5" to="-76424129#1" type="passenger"/>
    <trip id="169" depart="253.50" from="-1353710965#1" to="-76422639" type="passenger"/>
    <trip id="170" depart="255.00" from="1279004312" to="76423562#0" type="passenger"/>
    <trip id="171" depart="256.50" from="76444740#0" to="-76444642#2" type="passenger"/>
    <trip id="172" depart="258.00" from="653424723#0" to="258787159#0" type="passenger"/>
    <trip id="173" depart="259.50" from="76445646#0" to="490237094#9" type="passenger"/>
    <trip id="174" depart="261.00" from="76443176#0" to="-611673987#1" type="passenger"/>
    <trip id="175" depart="262.50" from="76444809#0" to="-76422456#1" type="passenger"/>
    <trip id="176" depart="264.00" from="76444642#5" to="-76441878#8" type="passenger"/>
    <trip id="177" depart="265.50" from="-586139322#5" to="319810580#0" type="passenger"/>
    <trip id="178" depart="267.00" from="76420298#0" to="128138690#0" type="passenger"/>
    <trip id="179" depart="268.50" from="611673986#0" to="467460526#0" type="passenger"/>
    <trip id="180" depart="270.00" from="152488091#0" to="586139321#0" type="passenger"/>
    <trip id="181" depart="271.50" from="-76441202#9" to="76420351#18" type="passenger"/>
    <trip id="182" depart="273.00" from="-108334755#1" to="76441437#2" type="passenger"/>
    <trip id="183" depart="274.50" from="466806303" to="76420491#11" type="passenger"/>
    <trip id="184" depart="276.00" from="76420491#0" to="76419309#0" type="passenger"/>
    <trip id="185" depart="277.50" from="131749987#0" to="-435110307#2" type="passenger"/>
    <trip id="186" depart="279.00" from="727862828#0" to="1287582260#0" type="passenger"/>
    <trip id="187" depart="280.50" from="108334761#0" to="76423430#0" type="passenger"/>
    <trip id="188" depart="282.00" from="76419858#0" to="108334761#0" type="passenger"/>
    <trip id="189" depart="283.50" from="108334753#0" to="301054181#2" type="passenger"/>
    <trip id="190" depart="285.00" from="228625780#0" to="108334753#0" type="passenger"/>
    <trip id="191" depart="286.50" from="-611698329#4" to="310452995#0" type="passenger"/>
    <trip id="192" depart="288.00" from="76443176#0" to="76419495#2" type="passenger"/>
    <trip id="193" depart="289.50" from="76424545#0" to="611697834#0" type="passenger"/>
    <trip id="194" depart="291.00" from="-108334753#1" to="-76444740#0" type="passenger"/>
    <trip id="195" depart="292.50" from="304270871#0" to="586139321#0" type="passenger"/>
    <trip id="196" depart="294.00" from="726518642#4" to="434331314#0" type="passenger"/>
    <trip id="197" depart="295.50" from="309141201#0" to="-76423507#2" type="passenger"/>
    <trip id="198" depart="297.00" from="395474061" to="76424337#0" type="passenger"/>
    <trip id="199" depart="298.50" from="76422456#0" to="-76421392#3" type="passenger"/>
</routes>
