<?xml version="1.0" encoding="UTF-8"?>

<!-- generated on 2026-03-03T21:18:53.330798+00:00 by Eclipse SUMO netconvert 1.26.0
<netconvertConfiguration xmlns:xsi="http://www.w3.org/2001/XMLSchema-instance" xsi:noNamespaceSchemaLocation="http://sumo.dlr.de/xsd/netconvertConfiguration.xsd">

    <input>
        <osm-files value="ottawa_sumo/ottawa.osm"/>
    </input>

    <output>
        <output-file value="ottawa_sumo/ottawa.net.xml"/>
        <output.street-names value="true"/>
        <output.original-names value="true"/>
    </output>

    <projection>
        <proj.utm value="true"/>
    </projection>

    <processing>
        <geometry.remove value="true"/>
        <roundabouts.guess value="true"/>
    </processing>

    <tls_building>
        <tls.discard-simple value="true"/>
        <tls.join value="true"/>
        <tls.guess-signals value="true"/>
    </tls_building>

    <ramp_guessing>
        <ramps.guess value="true"/>
    </ramp_guessing>

    <edge_removal>
        <keep-edges.by-vclass value="passenger"/>
        <remove-edges.isolated value="true"/>
    </edge_removal>

    <junctions>
        <junctions.join value="true"/>
        <junctions.corner-detail value="5"/>
    </junctions>

</netconvertConfiguration>
-->

<net version="1.20" junctionCornerDetail="5" limitTurnSpeed="5.50" xmlns:xsi="http://www.w3.org/2001/XMLSchema-instance" xsi:noNamespaceSchemaLocation="http://sumo.dlr.de/xsd/net_file.xsd">

    <location netOffset="-444587.24,-5028990.62" convBoundary="0.00,0.00,2514.43,2662.20" origBoundary="-75.713429,45.408124,-75.676249,45.442571" projParameter="+proj=utm +zone=18 +ellps=WGS84 +datum=WGS84 +units=m +no_defs"/>

    <type id="highway.living_street" priority="2" numLanes="1" speed="2.78" disallow="tram rail_urban rail rail_electric rail_fast ship container cable_car subway aircraft wheelchair scooter drone" oneway="0"/>
    <type id="highway.motorway_link" priority="9" numLanes="1" speed="22.22" allow="private emergency authority army vip passenger hov taxi bus coach delivery truck trailer motorcycle evehicle custom1 custom2" oneway="1"/>
    <type id="highway.primary" priority="12" numLanes="2" speed="27.78" disallow="tram rail_urban rail rail_electric rail_fast ship container cable_car subway aircraft wheelchair scooter drone" oneway="0"/>
    <type id="highway.primary_link" priority="7" numLanes="1" speed="22.22" disallow="tram rail_urban rail rail_electric rail_fast ship container cable_car subway aircraft wheelchair scooter drone" oneway="0"/>
    <type id="highway.residential" priority="3" numLanes="1" speed="13.89" disallow="tram rail_urban rail rail_electric rail_fast ship container cable_car subway aircraft wheelchair scooter drone" oneway="0"/>
    <type id="highway.secondary" priority="11" numLanes="1" speed="27.78" disallow="tram rail_urban rail rail_electric rail_fast ship container cable_car subway aircraft wheelchair scooter drone" oneway="0"/>
    <type id="highway.secondary_link" priority="6" numLanes="1" speed="22.22" disallow="tram rail_urban rail rail_electric rail_fast ship container cable_car subway aircraft wheelchair scooter drone" oneway="0"/>
    <type id="highway.tertiary" priority="10" numLanes="1" speed="22.22" disallow="tram rail_urban rail rail_electric rail_fast ship container cable_car subway aircraft wheelchair scooter drone" oneway="0"/>
    <type id="highway.unclassified" priority="4" numLanes="1" speed="13.89" disallow="tram rail_urban rail rail_electric rail_fast ship container cable_car subway aircraft wheelchair scooter drone" oneway="0"/>

    <edge id=":1027156623_0" function="internal">
        <lane id=":1027156623_0_0" index="0" disallow="tram rail_urban rail rail_electric rail_fast ship container cable_car subway aircraft wheelchair scooter drone" speed="13.89" length="0.29" shape="1271.88,1202.63 1271.65,1202.49"/>
        <lane id=":1027156623_0_1" index="1" disallow="tram rail_urban rail rail_electric rail_fast ship container cable_car subway aircraft wheelchair scooter drone" speed="13.89" length="0.29" shape="1273.59,1199.93 1273.32,1199.76"/>
    </edge>
    <edge id=":1034339475_0" function="internal">
        <lane id=":1034339475_0_0" index="0" disallow="tram rail_urban rail rail_electric rail_fast ship container cable_car subway aircraft wheelchair scooter drone" speed="3.65" length="4.67" shape="731.75,2269.88 731.09,2268.59 731.13,2267.70 731.87,2267.20 733.31,2267.08"/>
    </edge>
    <edge id=":10557304839_0" function="internal">
        <lane id=":10557304839_0_0" index="0" disallow="tram rail_urban rail rail_electric rail_fast ship container cable_car subway aircraft wheelchair scooter drone" speed="8.33" length="8.41" shape="1427.38,566.72 1426.54,569.09 1426.69,570.97 1426.84,572.86 1425.99,575.23"/>
        <lane id=":10557304839_0_1" index="1" disallow="tram rail_urban rail rail_electric rail_fast ship container cable_car subway aircraft wheelchair scooter drone" speed="8.33" length="8.41" shape="1427.38,566.72 1423.25,573.57"/>
    </edge>
    <edge id=":10557304839_2" function="internal">
        <lane id=":10557304839_2_0" index="0" disallow="tram rail_urban rail rail_electric rail_fast ship container cable_car subway aircraft wheelchair scooter drone" speed="8.33" length="7.99" shape="1420.51,571.92 1424.64,565.07"/>
    </edge>
    <edge id=":10698447849_0" function="internal">
        <lane id=":10698447849_0_0" index="0" disallow="tram rail_urban rail rail_electric rail_fast ship container cable_car subway aircraft wheelchair scooter drone" speed="13.89" length="8.03" shape="1738.96,1291.70 1732.08,1287.55"/>
    </edge>
    <edge id=":10698447849_1" function="internal">
        <lane id=":10698447849_1_0" index="0" disallow="tram rail_urban rail rail_electric rail_fast ship container cable_car subway aircraft wheelchair scooter drone" speed="13.89" length="8.34" shape="1733.77,1284.83 1736.10,1285.69 1737.97,1285.54 1739.84,1285.38 1742.20,1286.19"/>
        <lane id=":10698447849_1_1" index="1" disallow="tram rail_urban rail rail_electric rail_fast ship container cable_car subway aircraft wheelchair scooter drone" speed="13.89" length="8.34" shape="1733.77,1284.83 1740.58,1288.94"/>
    </edge>
    <edge id=":10698447858_0" function="internal">
        <lane id=":10698447858_0_0" index="0" disallow="tram rail_urban rail rail_electric rail_fast ship container cable_car subway aircraft wheelchair scooter drone" speed="13.89" length="15.48" shape="1702.29,1268.36 1699.17,1266.92 1695.90,1266.08 1692.20,1264.93 1687.77,1262.59"/>
        <lane id=":10698447858_0_1" index="1" disallow="tram rail_urban rail rail_electric rail_fast ship container cable_car subway aircraft wheelchair scooter drone" speed="13.89" length="15.48" shape="1702.29,1268.36 1689.57,1259.94"/>
    </edge>
    <edge id=":10698447858_2" function="internal">
        <lane id=":10698447858_2_0" index="0" disallow="tram rail_urban rail rail_electric rail_fast ship container cable_car subway aircraft wheelchair scooter drone" speed="8.23" length="13.01" shape="1703.36,1253.68 1701.97,1257.85 1701.63,1261.23 1702.31,1263.84 1704.04,1265.68"/>
    </edge>
    <edge id=":10698447858_3" function="internal">
        <lane id=":10698447858_3_0" index="0" disallow="tram rail_urban rail rail_electric rail_fast ship container cable_car subway aircraft wheelchair scooter drone" speed="8.40" length="18.04" shape="1703.36,1253.68 1700.60,1258.60 1697.39,1261.28 1693.71,1261.73 1689.57,1259.94"/>
    </edge>
    <edge id=":10698447858_4" function="internal">
        <lane id=":10698447858_4_0" index="0" disallow="tram rail_urban rail rail_electric rail_fast ship container cable_car subway aircraft wheelchair scooter drone" speed="3.65" length="1.44" shape="1703.36,1253.68 1702.16,1254.48"/>
    </edge>
    <edge id=":10698447858_8" function="internal">
        <lane id=":10698447858_8_0" index="0" disallow="tram rail_urban rail rail_electric rail_fast ship container cable_car subway aircraft wheelchair scooter drone" speed="3.65" length="3.23" shape="1702.16,1254.48 1701.27,1254.55 1700.68,1253.87 1700.40,1252.45"/>
    </edge>
    <edge id=":10698447858_5" function="internal">
        <lane id=":10698447858_5_0" index="0" disallow="tram rail_urban rail rail_electric rail_fast ship container cable_car subway aircraft wheelchair scooter drone" speed="6.14" length="9.07" shape="1693.16,1254.64 1695.47,1255.74 1697.45,1255.74 1699.09,1254.64 1700.40,1252.45"/>
    </edge>
    <edge id=":10698447858_6" function="internal">
        <lane id=":10698447858_6_0" index="0" disallow="tram rail_urban rail rail_electric rail_fast ship container cable_car subway aircraft wheelchair scooter drone" speed="13.89" length="15.58" shape="1693.16,1254.64 1696.99,1257.79 1699.44,1260.75 1701.47,1263.41 1704.04,1265.68"/>
    </edge>
    <edge id=":10698447858_7" function="internal">
        <lane id=":10698447858_7_0" index="0" disallow="tram rail_urban rail rail_electric rail_fast ship container cable_car subway aircraft wheelchair scooter drone" speed="3.65" length="1.44" shape="1691.36,1257.29 1691.91,1258.63"/>
    </edge>
    <edge id=":10698447858_9" function="internal">
        <lane id=":10698447858_9_0" index="0" disallow="tram rail_urban rail rail_electric rail_fast ship container cable_car subway aircraft wheelchair scooter drone" speed="3.65" length="3.23" shape="1691.91,1258.63 1691.79,1259.51 1691.01,1259.95 1689.57,1259.94"/>
    </edge>
    <edge id=":11765611588_0" function="internal">
        <lane id=":11765611588_0_0" index="0" disallow="tram rail_urban rail rail_electric rail_fast ship container cable_car subway aircraft wheelchair scooter drone" speed="3.65" length="4.67" shape="1847.59,1863.82 1848.23,1865.12 1848.18,1866.01 1847.43,1866.50 1845.99,1866.60"/>
    </edge>
    <edge id=":11765931269_0" function="internal">
        <lane id=":11765931269_0_0" index="0" disallow="tram rail_urban rail rail_electric rail_fast ship container cable_car subway aircraft wheelchair scooter drone" speed="13.89" length="8.40" shape="967.30,364.83 964.92,364.04 963.04,364.22 961.16,364.40 958.78,363.61"/>
        <lane id=":11765931269_0_1" index="1" disallow="tram rail_urban rail rail_electric rail_fast ship container cable_car subway aircraft wheelchair scooter drone" speed="13.89" length="8.40" shape="967.30,364.83 960.38,360.84"/>
    </edge>
    <edge id=":11765931269_2" function="internal">
        <lane id=":11765931269_2_0" index="0" disallow="tram rail_urban rail rail_electric rail_fast ship container cable_car subway aircraft wheelchair scooter drone" speed="13.89" length="8.00" shape="961.98,358.06 968.90,362.06"/>
    </edge>
    <edge id=":11870270130_0" function="internal">
        <lane id=":11870270130_0_0" index="0" disallow="tram rail_urban rail rail_electric rail_fast ship container cable_car subway aircraft wheelchair scooter drone" speed="2.78" length="3.65" width="2.50" shape="1398.99,1591.84 1397.97,1592.31 1397.27,1592.24 1396.91,1591.65 1396.87,1590.52"/>
    </edge>
    <edge id=":11941433331_0" function="internal">
        <lane id=":11941433331_0_0" index="0" disallow="tram rail_urban rail rail_electric rail_fast ship container cable_car subway aircraft wheelchair scooter drone" speed="13.89" length="8.21" shape="571.40,565.84 570.41,568.04 570.07,569.70 569.74,571.36 568.75,573.56"/>
        <lane id=":11941433331_0_1" index="1" disallow="tram rail_urban rail rail_electric rail_fast ship container cable_car subway aircraft wheelchair scooter drone" speed="13.89" length="8.21" shape="568.64,564.23 567.64,566.42 567.31,568.08 566.98,569.74 565.98,571.94"/>
        <lane id=":11941433331_0_2" index="2" disallow="tram rail_urban rail rail_electric rail_fast ship container cable_car subway aircraft wheelchair scooter drone" speed="13.89" length="8.21" shape="565.87,562.61 564.88,564.81 564.55,566.47 564.21,568.13 563.22,570.33"/>
        <lane id=":11941433331_0_3" index="3" disallow="tram rail_urban rail rail_electric rail_fast ship container cable_car subway aircraft wheelchair scooter drone" speed="13.89" length="8.21" shape="563.11,561.00 562.12,563.19 561.78,564.86 561.45,566.52 560.46,568.71"/>
    </edge>
    <edge id=":11941456669_0" function="internal">
        <lane id=":11941456669_0_0" index="0" disallow="tram rail_urban rail rail_electric rail_fast ship container cable_car subway aircraft wheelchair scooter drone" speed="13.89" length="8.54" shape="1587.71,1719.61 1585.34,1718.78 1583.45,1718.94 1581.57,1719.10 1579.20,1718.28"/>
        <lane id=":11941456669_0_1" index="1" disallow="tram rail_urban rail rail_electric rail_fast ship container cable_car subway aircraft wheelchair scooter drone" speed="13.89" length="8.54" shape="1589.34,1716.86 1586.97,1716.03 1585.09,1716.19 1583.20,1716.35 1580.83,1715.53"/>
        <lane id=":11941456669_0_2" index="2" disallow="tram rail_urban rail rail_electric rail_fast ship container cable_car subway aircraft wheelchair scooter drone" speed="13.89" length="8.54" shape="1589.34,1716.86 1582.46,1712.77"/>
    </edge>
    <edge id=":11941456669_3" function="internal">
        <lane id=":11941456669_3_0" index="0" disallow="tram rail_urban rail rail_electric rail_fast ship container cable_car subway aircraft wheelchair scooter drone" speed="13.89" length="8.54" shape="1585.73,1707.27 1588.10,1708.10 1589.98,1707.93 1591.87,1707.77 1594.24,1708.60"/>
        <lane id=":11941456669_3_1" index="1" disallow="tram rail_urban rail rail_electric rail_fast ship container cable_car subway aircraft wheelchair scooter drone" speed="13.89" length="8.54" shape="1584.10,1710.02 1586.47,1710.85 1588.35,1710.69 1590.24,1710.53 1592.61,1711.35"/>
        <lane id=":11941456669_3_2" index="2" disallow="tram rail_urban rail rail_electric rail_fast ship container cable_car subway aircraft wheelchair scooter drone" speed="13.89" length="8.54" shape="1584.10,1710.02 1590.98,1714.10"/>
    </edge>
    <edge id=":12110711368_0" function="internal">
        <lane id=":12110711368_0_0" index="0" disallow="tram rail_urban rail rail_electric rail_fast ship container cable_car subway aircraft wheelchair scooter drone" speed="11.11" length="0.30" shape="1471.67,459.07 1471.93,459.23"/>
    </edge>
    <edge id=":12110711370_0" function="internal">
        <lane id=":12110711370_0_0" index="0" disallow="tram rail_urban rail rail_electric rail_fast ship container cable_car subway aircraft wheelchair scooter drone" speed="11.11" length="0.30" shape="1493.95,473.85 1493.69,473.70"/>
    </edge>
    <edge id=":12110711370_1" function="internal">
        <lane id=":12110711370_1_0" index="0" disallow="tram rail_urban rail rail_electric rail_fast ship container cable_car subway aircraft wheelchair scooter drone" speed="11.11" length="0.30" shape="1495.25,470.91 1495.51,471.06"/>
    </edge>
    <edge id=":1243243043_0" function="internal">
        <lane id=":1243243043_0_0" index="0" disallow="tram rail_urban rail rail_electric rail_fast ship container cable_car subway aircraft wheelchair scooter drone" speed="13.89" length="7.53" shape="1400.32,1088.80 1393.98,1084.87"/>
        <lane id=":1243243043_0_1" index="1" disallow="tram rail_urban rail rail_electric rail_fast ship container cable_car subway aircraft wheelchair scooter drone" speed="13.89" length="7.53" shape="1401.92,1086.03 1395.46,1082.03"/>
    </edge>
    <edge id=":1243243043_2" function="internal">
        <lane id=":1243243043_2_0" index="0" disallow="tram rail_urban rail rail_electric rail_fast ship container cable_car subway aircraft wheelchair scooter drone" speed="3.65" length="1.44" shape="1401.92,1086.03 1401.28,1084.74"/>
    </edge>
    <edge id=":1243243043_7" function="internal">
        <lane id=":1243243043_7_0" index="0" disallow="tram rail_urban rail rail_electric rail_fast ship container cable_car subway aircraft wheelchair scooter drone" speed="3.65" length="3.23" shape="1401.28,1084.74 1401.34,1083.85 1402.08,1083.36 1403.52,1083.26"/>
    </edge>
    <edge id=":1243243043_3" function="internal">
        <lane id=":1243243043_3_0" index="0" disallow="tram rail_urban rail rail_electric rail_fast ship container cable_car subway aircraft wheelchair scooter drone" speed="11.01" length="7.76" shape="1398.42,1076.36 1400.48,1077.20 1402.04,1077.31 1403.67,1076.99 1405.94,1076.55"/>
    </edge>
    <edge id=":1243243043_4" function="internal">
        <lane id=":1243243043_4_0" index="0" disallow="tram rail_urban rail rail_electric rail_fast ship container cable_car subway aircraft wheelchair scooter drone" speed="13.89" length="7.81" shape="1398.42,1076.36 1405.13,1080.49"/>
        <lane id=":1243243043_4_1" index="1" disallow="tram rail_urban rail rail_electric rail_fast ship container cable_car subway aircraft wheelchair scooter drone" speed="13.89" length="7.81" shape="1396.94,1079.19 1403.52,1083.26"/>
    </edge>
    <edge id=":1243243043_6" function="internal">
        <lane id=":1243243043_6_0" index="0" disallow="tram rail_urban rail rail_electric rail_fast ship container cable_car subway aircraft wheelchair scooter drone" speed="3.65" length="1.44" shape="1396.94,1079.19 1397.63,1080.46"/>
    </edge>
    <edge id=":1243243043_8" function="internal">
        <lane id=":1243243043_8_0" index="0" disallow="tram rail_urban rail rail_electric rail_fast ship container cable_car subway aircraft wheelchair scooter drone" speed="3.65" length="3.23" shape="1397.63,1080.46 1397.62,1081.35 1396.89,1081.88 1395.46,1082.03"/>
    </edge>
    <edge id=":1243243085_0" function="internal">
        <lane id=":1243243085_0_0" index="0" disallow="pedestrian tram rail_urban rail rail_electric rail_fast ship container cable_car subway aircraft wheelchair scooter drone" speed="15.28" length="8.20" shape="1702.33,1143.60 1700.55,1145.19 1699.60,1146.56 1698.65,1147.94 1696.90,1149.56"/>
        <lane id=":1243243085_0_1" index="1" disallow="pedestrian tram rail_urban rail rail_electric rail_fast ship container cable_car subway aircraft wheelchair scooter drone" speed="15.28" length="8.20" shape="1700.46,1141.00 1698.67,1142.60 1697.71,1143.98 1696.75,1145.37 1694.99,1146.99"/>
        <lane id=":1243243085_0_2" index="2" disallow="pedestrian tram rail_urban rail rail_electric rail_fast ship container cable_car subway aircraft wheelchair scooter drone" speed="15.28" length="8.20" shape="1698.58,1138.41 1696.79,1140.01 1695.82,1141.40 1694.85,1142.79 1693.08,1144.43"/>
        <lane id=":1243243085_0_3" index="3" disallow="pedestrian tram rail_urban rail rail_electric rail_fast ship container cable_car subway aircraft wheelchair scooter drone" speed="15.28" length="8.20" shape="1696.71,1135.81 1694.90,1137.42 1693.93,1138.82 1692.95,1140.22 1691.17,1141.86"/>
        <lane id=":1243243085_0_4" index="4" disallow="pedestrian tram rail_urban rail rail_electric rail_fast ship container cable_car subway aircraft wheelchair scooter drone" speed="15.28" length="8.20" shape="1696.71,1135.81 1694.60,1137.02 1692.97,1137.53 1691.34,1138.05 1689.25,1139.29"/>
    </edge>
    <edge id=":1243243098_0" function="internal">
        <lane id=":1243243098_0_0" index="0" disallow="tram rail_urban rail rail_electric rail_fast ship container cable_car subway aircraft wheelchair scooter drone" speed="13.89" length="8.05" shape="1537.28,1168.01 1530.30,1163.97"/>
        <lane id=":1243243098_0_1" index="1" disallow="tram rail_urban rail rail_electric rail_fast ship container cable_car subway aircraft wheelchair scooter drone" speed="13.89" length="8.05" shape="1538.86,1165.22 1531.91,1161.21"/>
    </edge>
    <edge id=":1243243098_2" function="internal">
        <lane id=":1243243098_2_0" index="0" disallow="tram rail_urban rail rail_electric rail_fast ship container cable_car subway aircraft wheelchair scooter drone" speed="13.89" length="8.49" shape="1535.15,1155.69 1537.50,1156.49 1539.37,1156.30 1541.24,1156.11 1543.60,1156.88"/>
        <lane id=":1243243098_2_1" index="1" disallow="tram rail_urban rail rail_electric rail_fast ship container cable_car subway aircraft wheelchair scooter drone" speed="13.89" length="8.49" shape="1533.53,1158.45 1535.90,1159.26 1537.77,1159.08 1539.64,1158.88 1542.02,1159.66"/>
        <lane id=":1243243098_2_2" index="2" disallow="tram rail_urban rail rail_electric rail_fast ship container cable_car subway aircraft wheelchair scooter drone" speed="13.89" length="8.49" shape="1533.53,1158.45 1540.44,1162.44"/>
    </edge>
    <edge id=":1243243126_0" function="internal">
        <lane id=":1243243126_0_0" index="0" disallow="tram rail_urban rail rail_electric rail_fast ship container cable_car subway aircraft wheelchair scooter drone" speed="11.76" length="3.64" shape="1601.14,1360.73 1600.90,1359.68 1600.67,1358.97 1600.31,1358.32 1599.70,1357.44"/>
    </edge>
    <edge id=":1243243126_1" function="internal">
        <lane id=":1243243126_1_0" index="0" disallow="tram rail_urban rail rail_electric rail_fast ship container cable_car subway aircraft wheelchair scooter drone" speed="13.89" length="4.25" shape="1604.42,1359.26 1603.87,1358.12 1603.48,1357.35 1603.03,1356.62 1602.31,1355.58"/>
    </edge>
    <edge id=":1243243148_0" function="internal">
        <lane id=":1243243148_0_0" index="0" disallow="tram rail_urban rail rail_electric rail_fast ship container cable_car subway aircraft wheelchair scooter drone" speed="13.89" length="8.43" shape="1555.41,1639.87 1554.82,1642.32 1555.16,1644.18 1555.51,1646.05 1554.92,1648.50"/>
        <lane id=":1243243148_0_1" index="1" disallow="tram rail_urban rail rail_electric rail_fast ship container cable_car subway aircraft wheelchair scooter drone" speed="13.89" length="8.43" shape="1555.41,1639.87 1552.02,1647.15"/>
    </edge>
    <edge id=":1243243148_2" function="internal">
        <lane id=":1243243148_2_0" index="0" disallow="tram rail_urban rail rail_electric rail_fast ship container cable_car subway aircraft wheelchair scooter drone" speed="13.89" length="7.60" shape="1546.21,1644.46 1547.16,1642.45 1547.79,1641.08 1548.38,1639.68 1549.15,1637.60"/>
        <lane id=":1243243148_2_1" index="1" disallow="tram rail_urban rail rail_electric rail_fast ship container cable_car subway aircraft wheelchair scooter drone" speed="13.89" length="7.60" shape="1549.12,1645.81 1550.09,1643.73 1550.75,1642.30 1551.36,1640.84 1552.16,1638.69"/>
    </edge>
    <edge id=":1243243170_0" function="internal">
        <lane id=":1243243170_0_0" index="0" disallow="tram rail_urban rail rail_electric rail_fast ship container cable_car subway aircraft wheelchair scooter drone" speed="13.89" length="7.95" shape="1659.46,1680.61 1658.75,1682.86 1658.60,1684.52 1658.40,1686.15 1657.54,1688.33"/>
        <lane id=":1243243170_0_1" index="1" disallow="tram rail_urban rail rail_electric rail_fast ship container cable_car subway aircraft wheelchair scooter drone" speed="13.89" length="7.95" shape="1659.46,1680.61 1658.32,1682.61 1657.18,1683.77 1656.00,1684.91 1654.71,1686.85"/>
    </edge>
    <edge id=":12543518032_0" function="internal">
        <lane id=":12543518032_0_0" index="0" disallow="pedestrian tram rail_urban rail rail_electric rail_fast ship container cable_car subway aircraft wheelchair scooter drone" speed="16.67" length="8.21" shape="1710.38,1135.89 1708.57,1137.46 1707.59,1138.82 1706.62,1140.20 1704.84,1141.79"/>
        <lane id=":12543518032_0_1" index="1" disallow="pedestrian tram rail_urban rail rail_electric rail_fast ship container cable_car subway aircraft wheelchair scooter drone" speed="16.67" length="8.21" shape="1708.54,1133.27 1706.73,1134.84 1705.74,1136.21 1704.76,1137.59 1702.96,1139.19"/>
        <lane id=":12543518032_0_2" index="2" disallow="pedestrian tram rail_urban rail rail_electric rail_fast ship container cable_car subway aircraft wheelchair scooter drone" speed="16.67" length="8.21" shape="1706.71,1130.65 1704.88,1132.23 1703.89,1133.61 1702.90,1134.99 1701.09,1136.60"/>
        <lane id=":12543518032_0_3" index="3" disallow="pedestrian tram rail_urban rail rail_electric rail_fast ship container cable_car subway aircraft wheelchair scooter drone" speed="16.67" length="8.21" shape="1706.71,1130.65 1704.59,1131.83 1702.95,1132.31 1701.32,1132.80 1699.22,1134.00"/>
    </edge>
    <edge id=":12545961945_0" function="internal">
        <lane id=":12545961945_0_0" index="0" disallow="tram rail_urban rail rail_electric rail_fast ship container cable_car subway aircraft wheelchair scooter drone" speed="13.89" length="8.21" shape="1088.83,1418.07 1086.70,1416.94 1085.06,1416.50 1083.42,1416.06 1081.29,1414.93"/>
        <lane id=":12545961945_0_1" index="1" disallow="tram rail_urban rail rail_electric rail_fast ship container cable_car subway aircraft wheelchair scooter drone" speed="13.89" length="8.21" shape="1090.61,1415.42 1088.48,1414.28 1086.85,1413.85 1085.21,1413.41 1083.08,1412.28"/>
        <lane id=":12545961945_0_2" index="2" disallow="tram rail_urban rail rail_electric rail_fast ship container cable_car subway aircraft wheelchair scooter drone" speed="13.89" length="8.21" shape="1090.61,1415.42 1088.76,1413.87 1087.74,1412.52 1086.72,1411.17 1084.87,1409.62"/>
    </edge>
    <edge id=":1416671064_0" function="internal">
        <lane id=":1416671064_0_0" index="0" disallow="tram rail_urban rail rail_electric rail_fast ship container cable_car subway aircraft wheelchair scooter drone" speed="13.89" length="0.65" shape="1212.45,1490.65 1212.29,1490.54 1212.19,1490.46 1212.09,1490.36 1211.95,1490.24"/>
    </edge>
    <edge id=":1416671064_1" function="internal">
        <lane id=":1416671064_1_0" index="0" disallow="tram rail_urban rail rail_electric rail_fast ship container cable_car subway aircraft wheelchair scooter drone" speed="13.89" length="0.22" shape="1213.90,1487.77 1213.96,1487.81 1213.99,1487.84 1214.03,1487.86 1214.08,1487.89"/>
    </edge>
    <edge id=":1416718361_0" function="internal">
        <lane id=":1416718361_0_0" index="0" disallow="tram rail_urban rail rail_electric rail_fast ship container cable_car subway aircraft wheelchair scooter drone" speed="13.89" length="31.90" shape="1185.75,1407.42 1191.71,1402.48 1197.28,1396.66 1202.19,1390.29 1206.18,1383.65"/>
        <lane id=":1416718361_0_1" index="1" disallow="tram rail_urban rail rail_electric rail_fast ship container cable_car subway aircraft wheelchair scooter drone" speed="13.89" length="31.90" shape="1188.35,1409.49 1194.35,1404.45 1200.00,1398.43 1205.00,1391.85 1209.03,1385.11"/>
    </edge>
    <edge id=":1416718361_2" function="internal">
        <lane id=":1416718361_2_0" index="0" disallow="pedestrian tram rail_urban rail rail_electric rail_fast ship container cable_car subway aircraft wheelchair scooter drone" speed="13.89" length="31.60" shape="1191.52,1411.63 1206.18,1383.65"/>
        <lane id=":1416718361_2_1" index="1" disallow="pedestrian tram rail_urban rail rail_electric rail_fast ship container cable_car subway aircraft wheelchair scooter drone" speed="13.89" length="31.60" shape="1194.36,1413.12 1209.03,1385.11"/>
    </edge>
    <edge id=":1416718441_0" function="internal">
        <lane id=":1416718441_0_0" index="0" disallow="tram rail_urban rail rail_electric rail_fast ship container cable_car subway aircraft wheelchair scooter drone" speed="13.89" length="8.55" shape="1143.59,1519.11 1142.68,1521.45 1142.80,1523.33 1142.96,1525.24 1142.16,1527.64"/>
        <lane id=":1416718441_0_1" index="1" disallow="tram rail_urban rail rail_electric rail_fast ship container cable_car subway aircraft wheelchair scooter drone" speed="13.89" length="8.55" shape="1140.79,1517.56 1139.88,1519.88 1140.02,1521.75 1140.18,1523.65 1139.39,1526.03"/>
        <lane id=":1416718441_0_2" index="2" disallow="tram rail_urban rail rail_electric rail_fast ship container cable_car subway aircraft wheelchair scooter drone" speed="13.89" length="8.55" shape="1140.79,1517.56 1136.62,1524.43"/>
    </edge>
    <edge id=":1416718441_3" function="internal">
        <lane id=":1416718441_3_0" index="0" disallow="tram rail_urban rail rail_electric rail_fast ship container cable_car subway aircraft wheelchair scooter drone" speed="13.89" length="7.93" shape="1131.08,1521.22 1135.00,1514.36"/>
        <lane id=":1416718441_3_1" index="1" disallow="tram rail_urban rail rail_electric rail_fast ship container cable_car subway aircraft wheelchair scooter drone" speed="13.89" length="7.93" shape="1133.85,1522.82 1137.80,1515.91"/>
    </edge>
    <edge id=":1416751541_0" function="internal">
        <lane id=":1416751541_0_0" index="0" disallow="tram rail_urban rail rail_electric rail_fast ship container cable_car subway aircraft wheelchair scooter drone" speed="13.89" length="8.18" shape="1251.32,1617.27 1249.00,1616.59 1247.19,1616.89 1245.36,1617.22 1242.98,1616.65"/>
        <lane id=":1416751541_0_1" index="1" disallow="tram rail_urban rail rail_electric rail_fast ship container cable_car subway aircraft wheelchair scooter drone" speed="13.89" length="8.18" shape="1251.32,1617.27 1244.34,1613.76"/>
    </edge>
    <edge id=":1416751541_2" function="internal">
        <lane id=":1416751541_2_0" index="0" disallow="tram rail_urban rail rail_electric rail_fast ship container cable_car subway aircraft wheelchair scooter drone" speed="13.89" length="7.98" shape="1245.71,1610.86 1252.84,1614.45"/>
    </edge>
    <edge id=":1417117550_0" function="internal">
        <lane id=":1417117550_0_0" index="0" disallow="tram rail_urban rail rail_electric rail_fast ship container cable_car subway aircraft wheelchair scooter drone" speed="13.89" length="3.28" shape="729.13,2409.08 729.79,2412.26"/>
        <lane id=":1417117550_0_1" index="1" disallow="tram rail_urban rail rail_electric rail_fast ship container cable_car subway aircraft wheelchair scooter drone" speed="13.89" length="3.28" shape="725.99,2409.70 726.67,2412.94"/>
    </edge>
    <edge id=":1417117550_2" function="internal">