<?xml version="1.0" encoding="UTF-8"?>

<!-- generated on 2026-03-03 21:18:54.887025 by Eclipse SUMO randomTrips.py v1.26.0
<configuration>
    <net-file value="ottawa_sumo/ottawa.net.xml"/>
    <output-trip-file value="ottawa_sumo/ottawa.trips.xml"/>
    <route-file value="ottawa_sumo/ottawa.rou.xml"/>
    <vehicle-class value="passenger"/>
    <fringe-factor value="5"/>
    <end value="300.0"/>
    <period value="1.5"/>
</configuration>
-->

<!-- generated on 2026-03-03T21:18:54.873574+00:00 by Eclipse SUMO duarouter 1.26.0
<duarouterConfiguration xmlns:xsi="http://www.w3.org/2001/XMLSchema-instance" xsi:noNamespaceSchemaLocation="http://sumo.dlr.de/xsd/duarouterConfiguration.xsd">

    <input>
        <net-file value="ottawa_sumo/ottawa.net.xml"/>
        <route-files value="ottawa_sumo/ottawa.trips.xml"/>
    </input>

    <output>
        <output-file value="ottawa_sumo/ottawa.rou.xml"/>
        <alternatives-output value="NUL"/>
    </output>

    <time>
        <begin value="0"/>
        <end value="300.0"/>
    </time>

    <report>
        <no-warnings value="true"/>
        <ignore-errors value="true"/>
        <no-step-log value="true"/>
    </report>

</duarouterConfiguration>
-->

<routes xmlns:xsi="http://www.w3.org/2001/XMLSchema-instance" xsi:noNamespaceSchemaLocation="http://sumo.dlr.de/xsd/routes_file.xsd">
    <vType id="passenger" vClass="passenger"/>
    <vehicle id="0" type="passenger" depart="0.00">
        <route edges="644574499#0 304271385#0 465172687#0 611697829#0 435114851#0 623104350#0 -76421349#4 -1353710965#1"/>
    </vehicle>
    <vehicle id="1" type="passenger" depart="1.50">
        <route edges="-76441878#8 -76441202#4 152724876#1 152724876#3 434333901#0 128476367#0 467470142#0 -628707587#3 -611697827#4 -611697827#1 -611697826#1 -611698329#4 -467460526#2 -513545105#2 -726894651#1 76423168#0 309140494#0 309140495#0 1355615104#0 1355702034 76421230 465425406 -611673986#1 -689171248 -611673987#1 -465425408#2 -465425407#1 -435110307#2 -358713667#2 -435112128#3 -465591288#3 -395474007#5 -395474007#3 490237093#6 -76424129#1"/>
    </vehicle>
    <vehicle id="2" type="passenger" depart="3.00">
        <route edges="76420362#0 -76420362#2 -76423003#4 896388850 -896388849#2 -611697827#1 -611697826#1 -611698329#4 -467460526#2 -76420160#2 -316165883#2 589498761#0 244234855#0 76419665#0 -108334758#4 -76424504 -76421365 -254269859 -465134877#1 131749988#0 611697833 435115744#0 310453109#0 -435121083#2 -661755805#3 -1132239038#1 -756052529#1 -1307779068#1 -1307779070#1 76423385#0 1307778176 531863723#0 76423531#2 76419495#2"/>
    </vehicle>
    <vehicle id="3" type="passenger" depart="4.50">
        <route edges="76424346#0 -600273466#2 -600273466#0 -589692168#1 -589692169#2 -128138702#1 128136611#0 309140494#0 309140495#0 1355615104#0 1355702034 76421230 76420638#0 465172692#0 435114851#0 76423412#0 623111427#0 358713488#0 490237092#0 358714979#0 490237088#0 490237091 726511588#0 726511588#4 -465591289#3"/>
    </vehicle>
    <vehicle id="4" type="passenger" depart="6.00">
        <route edges="300720221#0 76442265#0 -362066954#2 -77699442#1 -504127878#3 -76443312#3 -152488091#1"/>
    </vehicle>
    <vehicle id="5" type="passenger" depart="7.50">
        <route edges="-76423507#13 -76422992#2 -1307779069#1 756052528#0 756052529#0 1132239038#0 -630327625#5 -395473995#9 -465591289#3 -1266752445#1 1266752445#0 465591289#0"/>
    </vehicle>
    <vehicle id="6" type="passenger" depart="9.00">
        <route edges="-152627338#3 232381925#0 139108139#0 397105988#0 456545660 319810546 76422546#0 319810547 128476367#0 467470142#0 -628707587#3 -611697827#4 -611697827#1 -611697826#1 -611698329#4 -467460526#2 -76420160#2 -316165883#2 589498761#0 244234855#0 76419665#0 -108334758#4 -76424504 -76421365 -254269859 -465134877#1 131749988#0 611697833 435115744#0 310453109#0 -435121083#2 -661755805#3 -1132239038#1 -756052529#1 76424337#0 -76423507#13 -76422992#2"/>
    </vehicle>
    <vehicle id="7" type="passenger" depart="10.50">
        <route edges="726511587#6 435116285#0 76419751#0 435115732#0 1132239036 310453067#0 310453094#0 254269859 254269857 76424504 514434475 520170914#0 130213249#1 300719459#0 456586435 435306355#0 76419383#0 108334759#0 76420566#0 -504127878#6 504127878#4"/>
    </vehicle>
    <vehicle id="8" type="passenger" depart="12.00">
        <route edges="-76423507#2 76423507#0 -76422422#4 756052526#0 756052527#0 1349491006 756052528#0 756052529#0 1132239038#0 661755805#0 435121083#0 76419751#0 435115732#0 1132239036 310453067#0 310453093#0 611697832#0 465172687#0 611697829#0 611697828#0 465172682#0 310453107 538377171#0 76422704#0 76420556 456586446 128138690#0 76419933#0 128191520#0 128138702#0 589692169#0"/>
    </vehicle>
    <vehicle id="9" type="passenger" depart="13.50">
        <route edges="76422525#0 726511587#6 435116285#0 76419751#0 435115732#0 1132239036 310453067#0 310453094#0 254269859 254269857 76424504 514434475 1150048806#0 -1150048806#4"/>
    </vehicle>
    <vehicle id="10" type="passenger" depart="15.00">
        <route edges="76422495#0 76422495#3 76422495#9 465591287#0 589694343#0 358714977#0 -358714978#2 589694344#0 -310452994#3 589694345#0 589694346#0 310453094#0 254269859 254269857 76424504 514434475 520170914#0 130213249#1 300719459#0 456586435 435306355#0 76419383#0 108334759#0 -520390902#3 76420160#0 467460526#0 611698329#0 611697826#0 611697827#0 611697827#2 628707587#0 76424462#0 76419525#0 76420047#0"/>
    </vehicle>
    <vehicle id="11" type="passenger" depart="16.50">
        <route edges="128191522#9 128191522#11 -628707587#3 76420767#0 -76420362#2 -467470145#3 76419351#0 -76420298#9"/>
    </vehicle>
    <vehicle id="12" type="passenger" depart="18.00">
        <route edges="76444617#6 -76444617#6 -76444617#5 76423507#6 76423108#0 76423385#0 1307778176"/>
    </vehicle>
    <vehicle id="13" type="passenger" depart="19.50">
        <route edges="-520390902#3 520390902#0 76420566#0 -504127878#6 -504127878#3"/>
    </vehicle>
    <vehicle id="14" type="passenger" depart="21.00">
        <route edges="76422495#3 76422495#9 158612782#3 730778102#0 1028499062#0 730778101#0 611673988#0 689171246 465425408#0 611673987#0 395474061 611673986#0 1468971555 456581917 76420638#0"/>
    </vehicle>
    <vehicle id="15" type="passenger" depart="22.50">
        <route edges="466806303 434331314#0 76419898#0 364597465#0 76423562#0 128476281#0 -76423430#2 -76423003#4 896388850 -896388849#2 -611697827#1 -611697826#1 -611698329#4 -467460526#2 -76420160#2 -316165883#2 589498761#0 244234855#0 76419665#0 -108334758#4 -76424504 -76421365 -254269859 254269859 745437283 -76420757#6 -503127214#3 -76445460#1 76445646#0 76445216#0 680627041#0 -76444642#7 -76444642#4 532654950#2 76445488#0"/>
    </vehicle>
    <vehicle id="16" type="passenger" depart="24.00">
        <route edges="1355702038 1217873605 76420556 456586446 128138690#0 76419309#0 108334762#0 108334753#0 -589498761#2 316165883#0 76420160#0 467460526#0 611698329#0 611697826#0 611697827#0 513904986"/>
    </vehicle>
    <vehicle id="17" type="passenger" depart="25.50">
        <route edges="76423003#0 76420362#0 76420767#8 611713886#0"/>
    </vehicle>
    <vehicle id="18" type="passenger" depart="27.00">
        <route edges="76423507#6 76423507#10 -76422992#2 -1307779069#1 756052528#0 756052529#0 1132239038#0 661755805#0 435121083#0 76419751#0 435115732#0 1132239036 310453067#0 310453094#0 254269859 254269857 76424504 514434475 520170914#0 130213249#1 300719459#0 456586435 435306355#0 76419383#0 108334759#0 -520390902#3 76420160#0 467460526#0 611698329#0 611697826#0 611697827#0 611697827#2 76420767#0 76419399#0 76423863#0 76423635#0 76420633 586139321#0"/>
    </vehicle>
    <vehicle id="19" type="passenger" depart="28.50">
        <route edges="76419740#0 435306355#0 76419383#0 108334759#0 -520390902#3 76420160#0 467460526#0 611698329#0 611697826#0 611697827#0 611697827#2 76420767#0 76419399#0 76423863#0 -301054181#1"/>
    </vehicle>
    <vehicle id="20" type="passenger" depart="30.00">
        <route edges="-76423774#5 -76423774#4 152724891#2 456545665 139108141#0 456545660 319810546 76422546#0 319810547 128476367#0 467470142#0 -628707587#3 -611697827#4 -611697827#1 -611697826#1 -611698329#4 -467460526#2 -76420160#2 -316165883#2 589498761#0 244234855#0 76419665#0 -108334758#4 -76424504 -76421365 -254269859 254269859 745437283 -76420757#6 -503127214#3 -76445460#1 76445646#0 76445216#0 680627041#0 -76445363#4"/>
    </vehicle>
    <vehicle id="21" type="passenger" depart="31.50">
        <route edges="-465591290#1 465591290#0 395474007#0 395474007#2 395474007#4 465591288#0 358714977#0 -358714978#2 589694344#0 -310452994#3 589694345#0 589694346#0 310453094#0 254269859 254269857 76424504 514434475 -108334758#4 -76424504"/>
    </vehicle>
    <vehicle id="22" type="passenger" depart="33.00">
        <route edges="-586139321#1 -76420633 -76423635#1 -76423863#2 467470142#0 -628707587#3 -611697827#4 -611697827#1 -611697826#1 -611698329#4 -467460526#2 -76420160#2 -316165883#2 589498761#0 244234855#0 76419665#0 -108334758#4 -76424504 -76421365 -254269859 254269859 745437283 -76420757#6 -503127214#3 -76445460#1 76445646#0 76445216#0 680627041#0 -76444642#7 -76444642#4 -76444642#2 -76444642#0"/>
    </vehicle>
    <vehicle id="23" type="passenger" depart="34.50">
        <route edges="626431573#0 76441374#1 232381925#0 139108139#0 397105988#0 456545660 319810546 76422546#0 319810580#0 456547551#0 456547551#1 152724891#0 152724891#2 456545665 139108141#0"/>
    </vehicle>
    <vehicle id="24" type="passenger" depart="36.00">
        <route edges="-76441694#10 -76441694#8 76441878#10"/>
    </vehicle>
    <vehicle id="25" type="passenger" depart="37.50">
        <route edges="726511587#0 726511587#6 435116285#0 76419751#0 435115732#0 1132239036 310453067#0 310453093#0 611697832#0 465172687#0 611697829#0 611697828#0"/>
    </vehicle>
    <vehicle id="26" type="passenger" depart="39.00">
        <route edges="-76421349#4 76421349#0 108438007#0 728819100 726994185#0 1468971555 456581917 76420638#0"/>
    </vehicle>
    <vehicle id="27" type="passenger" depart="40.50">
        <route edges="-76420491#11 -76423272#1 -1160741971#1 -76424545#2 -76420633 -76423635#1 -76423863#2 -76419399#2 76420767#8 611713886#0 434333901#0 434331329#0 456547551#0 456547551#1 152724891#0 152724891#2 152724891#3"/>
    </vehicle>
    <vehicle id="28" type="passenger" depart="42.00">
        <route edges="834263083#0 -76423335#2 -1287583414#1 -356349575 -108334755#1 108334761#0 300719590#0 76422245#0 76419740#0 76726313#1 76421001 309141201#0 435114851#0 76423412#0 623111428#0 482219201#0 533077077#0 653424729#0"/>
    </vehicle>
    <vehicle id="29" type="passenger" depart="43.50">
        <route edges="490237093#14 1287582259#4 1287582260#0 1287582261#0 158612782#0 465591287#0 589694343#0 358714977#0 -358714978#2 589694344#0 -310452994#3 589694345#0 589694346#0 310453094#0 254269859 254269857 76424504 514434475 520170914#0 76843269 131679119#1 76419665#0"/>
    </vehicle>
    <vehicle id="30" type="passenger" depart="45.00">
        <route edges="76423292#9 76423292#14 490237091 726511588#0 726511588#4 395473995#0 630327625#0 -1132239038#1 -756052529#1 -1307779068#1 -1307779070#1 -756052527#1 76444617#0 -76423507#5 76422422#5"/>
    </vehicle>
    <vehicle id="31" type="passenger" depart="46.50">
        <route edges="-76423774#5 -76423774#4 152724891#2 456545665 139108141#0 456545660 319810546 76422546#0 319810547 128476367#0 467470142#0 -628707587#3 -611697827#4 -611697827#1 -611697826#1 -611698329#4 -467460526#2 -76420160#2 520390902#0 76420566#0 -504127878#6 -504127878#3 -76443312#3 -152488091#1"/>
    </vehicle>
    <vehicle id="32" type="passenger" depart="48.00">
        <route edges="108438007#0 728819100 726994185#0 1468971555 456581917 1355702038 1217873605 76420556 456586446 128138690#0 76419309#0 108334762#0 108334753#0 -589498761#2 316165883#0 76420160#0 467460526#0 611698329#0 611697826#0 611697827#0 611697827#2 76420767#0 76420767#8 611713886#0 76423497#0 139108149#0 139108153#0 -232381925#1 -76441437#5 -76441437#3 -76443382#1"/>
    </vehicle>
    <vehicle id="33" type="passenger" depart="49.50">
        <route edges="-76423148#2 456547551#1 76419898#0 364597465#0 76423562#0 76423562#3 467460523 611713878#0 467460525#0 76442265#0 76443644#0 128476366#0 611697834#0 76442870#0"/>
    </vehicle>
    <vehicle id="34" type="passenger" depart="51.00">
        <route edges="76423863#0 -76423863#2 467470142#0 -628707587#3 -611697827#4 -611697827#1 -611697826#1 -611698329#4 -467460526#2 -76420160#2 -316165883#2 589498761#0 -108334753#1 -108334762#2 -76419309#1 76419933#0 128191520#0 128138702#0"/>
    </vehicle>
    <vehicle id="35" type="passenger" depart="52.50">
        <route edges="726518642#7 310452995#0 310452996#0 644574499#0 304271385#0 310453065#0 611697831#0 310453094#0 254269859 254269857"/>
    </vehicle>
    <vehicle id="36" type="passenger" depart="54.00">
        <route edges="76441437#0 76441437#1 76441437#2 76441437#4 232381925#0 139108139#0 397105988#0 456545660 319810546 76422546#0 319810580#0 456547551#0 456547551#1 397105989#0 397105989#2"/>
    </vehicle>
    <vehicle id="37" type="passenger" depart="55.50">
        <route edges="-76441694#10 -76441437#3 -76441437#1 -76441437#0"/>
    </vehicle>
    <vehicle id="38" type="passenger" depart="57.00">
        <route edges="490237094#4 76419772#8 76419495#7 76419495#12 726518642#0 726518642#2 726518642#4 726518642#7 310452995#0 310452996#0 644574499#0 304271385#0 76422588#0 228627163#0 611697820 509116141 228627168 435306355#0 76419383#0 108334759#0 108334754#0 108334755#0 356349575 1287583414#0 300720221#0 76419221#0 619191181#0 611713887#0 76441202#0 -76441878#6"/>
    </vehicle>
    <vehicle id="39" type="passenger" depart="58.50">
        <route edges="532654950#0 76444642#3 -76422992#8 -76422992#5 -76422992#2 -1307779069#1 756052528#0 756052529#0 1132239038#0 661755805#0 435121083#0 76419751#0 435115732#0 1132239036 310453067#0 310453093#0 611697832#0 465172687#0 611697829#0 611697828#0 465172682#0 310453107 538377171#0 76422704#0 76420556 456586446 128138690#0 76419933#0 128191520#0 128138702#0 76421622#0 76419630#0 76423610#0 76424055#0"/>
    </vehicle>
    <vehicle id="40" type="passenger" depart="60.00">
        <route edges="158612783#0 465591290#0 395474007#0 395474007#2 395474007#4 465591288#0 435112128#0 358713668#0 304270871#0 304270872#0 644574499#0 304271385#0 76422588#0 228627163#0 611697820 509116141 228627168 435306355#0 76419383#0 108334759#0 -520390902#3 76420160#0 467460526#0 611698329#0 611697826#0 611697827#0 611697827#2 76420767#0 76420767#8 611713886#0 434333901#0 434331329#0 456547551#0 456547551#1 397105989#0 76422577#0 -76423774#4"/>
    </vehicle>
    <vehicle id="41" type="passenger" depart="61.50">
        <route edges="881130908#0 76423292#0 1287582260#0 1287582261#0 158612782#0 158612782#3 730778103#0 358713668#0 304270871#0 304270872#0 644574499#0 304271385#0 76422588#0 228627163#0 611697820 509116141 228627168 435306355#0 76419383#0 108334759#0 108334754#0 108334755#0 356349575 1287583414#0 76423335#0 465172667#0 76422910#4 467460523"/>
    </vehicle>
    <vehicle id="42" type="passenger" depart="63.00">
        <route edges="-520045235#1 -76422970#1 76420971#0 76423251 76423417 76424073#0 76419641#0 628707587#0 -128191522#13 -301054181#6"/>
    </vehicle>
    <vehicle id="43" type="passenger" depart="64.50">
        <route edges="-589498761#2 316165883#0 520390902#0 300719590#0 76422245#0 76419740#0 76726313#1 76421001 309141201#0 435114851#0 623104350#0"/>
    </vehicle>
    <vehicle id="44" type="passenger" depart="66.00">
        <route edges="76422142#3 76423568#0 572120327#0 76423251 1341559531 309140493 309140495#0 1355615104#0 1355702034 76421230 76420638#0 465172692#0 465172696#0 611697830#0 310453065#0"/>
    </vehicle>
    <vehicle id="45" type="passenger" depart="67.50">
        <route edges="-395474007#3 395474007#2 395474007#4 465591288#0 435112128#0 358713668#0 304270871#0 304270872#0 644574499#0 304271385#0 76422588#0 228627163#0 611697820 509116141 228627168 435306355#0 76419383#0 108334759#0 -520390902#3 76420160#0 467460526#0 611698329#0 611697826#0 611697827#0 611697827#2 76420767#0 76420767#8 611713886#0 434333901#0 434331329#0 456547551#0 456547551#1 152724891#0 152724891#2 152724891#3"/>
    </vehicle>
    <vehicle id="46" type="passenger" depart="69.00">
        <route edges="881130908#0 76423292#0 76423292#9 76423292#14 490237091 726511588#0 726511588#4 490237094#0"/>
    </vehicle>
    <vehicle id="47" type="passenger" depart="70.50">
        <route edges="76444809#0 -76445460#1 76445646#0 76445216#0 680627041#0 -76444642#7 -76444642#4 -76444642#2 -76444642#0 -76422422#6 76423507#3"/>
    </vehicle>
    <vehicle id="48" type="passenger" depart="72.00">
        <route edges="-128191522#10 -128191522#8 -128191522#6 -128191522#4 76420491#6 76420491#11"/>
    </vehicle>
    <vehicle id="49" type="passenger" depart="73.50">
        <route edges="756052529#0 1132239038#0 -630327625#5 -395473995#9 490237094#0 490237094#3 490237094#4 490237094#7 490237094#9"/>
    </vehicle>
    <vehicle id="50" type="passenger" depart="75.00">
        <route edges="-76441694#10 76441437#4 232381925#0 139108139#0 397105988#0 456545660 319810546 76422546#0 319810547 128476367#0 467470142#0 -628707587#3 -611697827#4 -611697827#1 -611697826#1 -611698329#4 -467460526#2 -76420160#2 -316165883#2 589498761#0 244234855#0 76419665#0 -108334758#4 -76424504 -76421365 -254269859 -465134877#1 131749988#0 611697833 435115744#0 310453109#0 -435121083#2 -661755805#3 661755805#0"/>
    </vehicle>
    <vehicle id="51" type="passenger" depart="76.50">
        <route edges="-589692169#2 -128138702#1 128136611#0 128138706#0 128138690#0 76419309#0 108334762#0 108334753#0 727849694#0 244234856#0 76422245#0 76419740#0 76423768#0 345525371"/>
    </vehicle>
    <vehicle id="52" type="passenger" depart="78.00">
        <route edges="31773792#0 -490051417#1 -4970097#2 465425408#0 611673987#0 395474061 611673986#0 1468971555 456581917 76420638#0 465172692#0 465172696#0 611697830#0 310453065#0 611697831#0 310453094#0 254269859 745437283 -76420757#6 -503127214#3 -76445460#1 76445646#0 76444444 76444505"/>
    </vehicle>
    <vehicle id="53" type="passenger" depart="79.50">
        <route edges="76423863#0 -76423863#2 -76419399#2 76420767#8 611713886#0 76423497#0 139108149#0 139108153#0 -232381925#1 -76441437#5 -76441437#3 -76441437#1 -76441202#8 -76441878#6"/>
    </vehicle>
    <vehicle id="54" type="passenger" depart="81.00">
        <route edges="456545665 139108141#0 456545660 319810546 76422546#0 319810547 128476367#0 467470142#0 -628707587#3 -611697827#4 -611697827#1 -611697826#1 -611698329#4 -467460526#2 -513545105#2 -726894651#1 76423168#0 309140494#0 309140495#0 1355615104#0 1355702034 76421230 465425406 -611673986#1 -689171248 -611673987#1 -465425408#2 -465425407#1 -435110307#2 -358713667#2 -435112128#3 -465591288#3 -395474007#5 -395474007#3 490237093#6 490237093#13 -76422456#1"/>
    </vehicle>
    <vehicle id="55" type="passenger" depart="82.50">
        <route edges="76441437#0 76441437#1 76441437#2 76441437#4 232381925#0 139108139#0 397105988#0 456545660 319810546 76422546#0 319810547 128476367#0 467470142#0 -628707587#3 -611697827#4 -611697827#1 -611697826#1 -611698329#4 -467460526#2 -76420160#2 520390902#0 300719590#0 76422245#0 76419740#0 76423768#0"/>
    </vehicle>
    <vehicle id="56" type="passenger" depart="84.00">
        <route edges="-76726255#2 76419495#4 76419495#5 76419495#7 76419495#12 726518642#0 726518642#2 726518642#4 726518642#7 310452995#0 -589694344#3 358714978#0 -358714977#4 -589694343#2 -465591287#2 158612782#3 730778102#0 533077077#0 653424729#0"/>
    </vehicle>
    <vehicle id="57" type="passenger" depart="85.50">
        <route edges="611673989#0 611673988#0 689171246 465425408#0 611673987#0 395474061 611673986#0 1468971555 456581917 1355702038 1217873605 76420556 456586446 128138690#0 76419309#0 108334762#0 108334753#0 -589498761#2 316165883#0 76420160#0 -76420160#2"/>
    </vehicle>
    <vehicle id="58" type="passenger" depart="87.00">
        <route edges="76420817 76420707#0 76424496#0 76424496#2 76424100#0 128191522#0 128191522#3 128191522#5 128191522#7 -76419809#1 491610754#0"/>
    </vehicle>
    <vehicle id="59" type="passenger" depart="88.50">
        <route edges="76421266#0 653424726#0 76420351#0 76422495#9 465591287#0 589694343#0 358714977#0 358714979#0 490237088#0 490237091 726511588#0 726511588#4 490237094#0 490237094#3"/>
    </vehicle>
    <vehicle id="60" type="passenger" depart="90.00">
        <route edges="-108334753#1 -108334762#2 -76419309#1 76419309#0 108334762#0 108334753#0 -589498761#2 316165883#0 76420160#0 467460526#0 611698329#0 611697826#0 611697827#0 611697827#2 76420767#0 76420767#8 611713886#0 76423562#0 128476281#0"/>
    </vehicle>
    <vehicle id="61" type="passenger" depart="91.50">
        <route edges="-1307779068#1 -1307779070#1 76423385#0 1307778176 1307778174#0 756052527#0 1349491006 756052528#0 756052529#0 1132239038#0 661755805#0 435121083#0 76419751#0 435115732#0 1132239036 310453067#0 310453094#0 254269859 254269857 76424504 514434475 520170914#0 130213249#1 300719459#0 456586435 435306355#0 76419383#0 108334759#0 -520390902#3 76420160#0 467460526#0 611698329#0 611697826#0 611697827#0 611697827#2 76420767#0 76420767#8 611713886#0 76423497#0 139108149#0 139108153#0 -232381925#1 -76441437#5 76441694#9"/>
    </vehicle>
    <vehicle id="62" type="passenger" depart="93.00">
        <route edges="76423999#10 726511588#4 490237094#0 76423268#0"/>
    </vehicle>
    <vehicle id="63" type="passenger" depart="94.50">
        <route edges="-896388849#2 -611697827#1 -611697826#1 -611698329#4 -467460526#2 -76420160#2 -316165883#2 589498761#0 244234855#0 76419665#0 -108334758#4 -76424504 -76421365 -254269859 -465134877#1 131749988#0 611697833 435115744#0 310453109#0 -435121083#2 -661755805#3 -630327625#5 -395473995#9"/>
    </vehicle>
    <vehicle id="64" type="passenger" depart="96.00">
        <route edges="76423999#10 726511588#4 395473995#0 726518642#0 726518642#2 726518642#4 726518642#7 310452995#0 310452996#0 644574499#0 304271385#0 76422588#0 228627163#0 611697820 509116141 228627168 435306355#0 76419383#0 108334759#0 108334754#0 108334755#0 356349575 1287583414#0 300720221#0 76442265#0 76443644#0"/>
    </vehicle>
    <vehicle id="65" type="passenger" depart="97.50">
        <route edges="-503127214#1 -76444365#5 -76423852#5 661755805#0 435121083#0 76419751#0 435115732#0 1132239036 310453067#0 310453094#0 254269859 254269857 76424504 514434475 520170914#0 130213249#1 300719459#0 456586435 435306355#0 76419383#0 108334759#0 -520390902#3 76420160#0 467460526#0 611698329#0 611697826#0 611697827#0 611697827#2 76420767#0 76420767#8 611713886#0 434333901#0 434331329#0 456547551#0"/>
    </vehicle>
    <vehicle id="66" type="passenger" depart="99.00">
        <route edges="-435121083#2 435121083#0 76419751#0 435115732#0 1132239036 310453067#0 310453093#0 611697832#0 465172687#0 611697829#0 611697828#0 465172682#0 310453107 538377171#0 76422704#0 76420556 456586446 128138690#0 76419933#0 128191520#0 128138702#0 76421622#0 76422142#0"/>
    </vehicle>
    <vehicle id="67" type="passenger" depart="100.50">
        <route edges="76420817 520045236#0 -520045235#2 -520045235#1 -76422970#1 76420971#0 76423251 1341559531 309140493 309140495#0 1355615104#0 1355702034 76421230 76420638#0 465172692#0 465172696#0 611697830#0 310453065#0 611697831#0 131749988#0 611697833 435115744#0 310453109#0 -435121083#2 76422525#0 -726511587#5"/>
    </vehicle>
    <vehicle id="68" type="passenger" depart="102.00">
        <route edges="397105989#0 76422577#0 -76423774#4 152724891#2 456545665 139108141#0 456545660 319810546 76422546#0 319810547 128476367#0 467470142#0 -628707587#3 -611697827#4 513904986"/>
    </vehicle>
    <vehicle id="69" type="passenger" depart="103.50">
        <route edges="-76441694#10 76441437#4 232381925#0 139108139#0 397105988#0 456545660 319810546 76422546#0 319810580#0 456547551#0 76423148#0 76423774#0"/>
    </vehicle>
    <vehicle id="70" type="passenger" depart="105.00">
        <route edges="301054181#0 -76423863#2 467470142#0 -628707587#3 -611697827#4 -611697827#1 -611697826#1 -611698329#4 -467460526#2 -76420160#2 -316165883#2 589498761#0 244234855#0 76419665#0 -108334758#4 -76424504 -76421365 -254269859 -465134877#1 131749988#0 611697833 435115744#0 310453109#0 -435121083#2 -661755805#3 -1132239038#1 -756052529#1 76424337#0 -76423507#13"/>
    </vehicle>
    <vehicle id="71" type="passenger" depart="106.50">
        <route edges="467460523 611713878#0 467460525#0 -300720221#3 -1287583414#1 -356349575 -232381929#2 -513545105#2 -726894651#1 76423168#0 309140494#0 309140495#0 1355615104#0 1355702034 76421230 76420638#0"/>
    </vehicle>
    <vehicle id="72" type="passenger" depart="108.00">
        <route edges="-76422992#10 76444642#5 -76445363#4 76423507#14 -76423852#5 661755805#0 435121083#0 76419751#0 435115732#0 1132239036 310453067#0 310453093#0 611697832#0 465172687#0 611697829#0 611697828#0 465172682#0 310453107 538377171#0 76422704#0 76420556 456586446 128138690#0 76419933#0 128191520#0 128138702#0 -128138702#1 128136611#0"/>
    </vehicle>
    <vehicle id="73" type="passenger" depart="109.50">
        <route edges="881130908#0 76423292#0 76423292#9 76423292#14 490237091 726511588#0 131908187#0 726518642#2"/>
    </vehicle>
    <vehicle id="74" type="passenger" depart="111.00">
        <route edges="309140493 309140495#0 1355615104#0 1355702034 76421230 76420638#0 465172692#0 435114851#0 76423412#0 623111427#0 358713488#0 490237092#0 358714979#0 490237088#0"/>
    </vehicle>
    <vehicle id="75" type="passenger" depart="112.50">
        <route edges="-611673987#1 -465425408#2 -465425407#1 -435110307#2 -358713667#2 -435112128#3 -465591288#3 -395474007#5 -395474007#3 490237093#6 -76424129#1"/>
    </vehicle>
    <vehicle id="76" type="passenger" depart="114.00">
        <route edges="128191522#5 128191522#7 128191522#9 128191522#11 -628707587#3 -611697827#4 -611697827#1 -611697826#1 -611698329#4 -76422986#8 -600273466#2 -600273466#0 -589692168#1 -589692169#2 589692169#0 589692168#0"/>
    </vehicle>
    <vehicle id="77" type="passenger" depart="115.50">
        <route edges="-76423774#5 -76423774#4 152724891#2 456545665 139108141#0 456545660 319810546 76422546#0 319810547 128476367#0 467470142#0 -628707587#3 -611697827#4 -611697827#1 -611697826#1 -611698329#4 -467460526#2 -76420160#2 -316165883#2 589498761#0 244234855#0 76419665#0 -108334758#4 -76424504 -76421365 -254269859 -465134877#1 131749988#0 611697833 435115744#0 310453109#0 -435121083#2 76422525#0 -726511587#5 -76423852#5"/>
    </vehicle>
    <vehicle id="78" type="passenger" depart="117.00">
        <route edges="-465172667#2 -76423335#2 -1287583414#1 -356349575 -108334755#1 108334761#0 300719590#0 76422245#0 76419740#0 76726313#1 76421001 309141201#0 435114851#0 76423412#0 623111428#0"/>
    </vehicle>
    <vehicle id="79" type="passenger" depart="118.50">
        <route edges="-76423774#5 -76423774#4 152724891#2 456545665 139108141#0 456545660 319810546 76422546#0 319810547 128476367#0 467470142#0 -628707587#3 -611697827#4 -76423904#2 -76424398#2 76424398#0"/>
    </vehicle>
    <vehicle id="80" type="passenger" depart="120.00">
        <route edges="76423507#14 -76423852#5 -630327625#5 -395473995#9 -465591289#3 -1266752445#1 465591290#0 395474007#0 395474007#2 395474007#4 465591288#0 435112128#0 -435112128#3"/>
    </vehicle>
    <vehicle id="81" type="passenger" depart="121.50">
        <route edges="-76423883#1 76423999#2 1287582259#2 1287582259#3 1287582259#4 1287582260#0 1287582261#0 158612782#0 158612782#3 730778103#0 358713668#0 304270871#0 304270872#0 644574499#0 304271385#0 76422588#0 228627163#0 611697820 509116141 228627168 435306355#0 76419383#0 108334759#0 108334754#0 108334755#0 356349575 1287583414#0 300720221#0 76419221#0"/>
    </vehicle>
    <vehicle id="82" type="passenger" depart="123.00">
        <route edges="-76423335#2 -1287583414#1 -356349575 -232381929#2 -513545105#2 -726894651#1 76423168#0 309140494#0 309140495#0 1355615104#0 1355702034 76421230 465425406 -611673986#1 -689171248 -611673987#1 -465425408#2 -465425407#1 -1347561393#1 -465591286#3 -435108445#4 -727862828#1"/>
    </vehicle>
    <vehicle id="83" type="passenger" depart="124.50">
        <route edges="76442960#0 76424480#0 -1287583414#1 -356349575 -108334755#1 108334761#0 300719590#0 76422245#0 76419740#0 76726313#1 76421001 309141201#0 611697828#0 465172682#0 310453107 538377171#0"/>
    </vehicle>
    <vehicle id="84" type="passenger" depart="126.00">
        <route edges="395474061 611673986#0 1468971555 456581917 1355702038 1217873605 76420556 456586446 128138690#0 76419309#0 108334762#0 108334753#0 -589498761#2 316165883#0 76420160#0 467460526#0 611698329#0 611697826#0 611697827#0 611697827#2 628707587#0 -128191522#13 -128191522#10 -128191522#8 -128191522#6 -128191522#4 -128191522#2 76422432#0"/>
    </vehicle>
    <vehicle id="85" type="passenger" depart="127.50">
        <route edges="76422495#3 76422495#9 158612782#3 730778103#0 358713668#0 304270871#0 304270872#0 644574499#0 304271385#0 465172687#0 611697829#0 611697828#0 465172682#0 310453107 538377171#0 76422704#0 76420556 456586446 128138690#0 76422580 -76422639"/>
    </vehicle>
    <vehicle id="86" type="passenger" depart="129.00">
        <route edges="-545155169 545155169 76843154#0 -465134877#1 -589694346#3 -589694345#2 310452994#0 -589694344#3 358714978#0 -358714977#4 -589694343#2 -465591287#2 158612782#3 730778102#0 1028499062#0 730778101#0 31774272#0"/>
    </vehicle>
    <vehicle id="87" type="passenger" depart="130.50">
        <route edges="301054181#0 -76423863#2 -76419399#2 76420767#8 611713886#0 434333901#0"/>
    </vehicle>