<?xml version="1.0" encoding="UTF-8"?>

<!-- generated on 2026-03-03T21:18:54.272757+00:00 by Eclipse SUMO polyconvert 1.26.0
<polyconvertConfiguration xmlns:xsi="http://www.w3.org/2001/XMLSchema-instance" xsi:noNamespaceSchemaLocation="http://sumo.dlr.de/xsd/polyconvertConfiguration.xsd">

    <input>
        <net-file value="ottawa_sumo/ottawa.net.xml"/>
        <osm-files value="ottawa_sumo/ottawa.osm"/>
        <type-file value="/usr/share/sumo/data/typemap/osmPolyconvert.typ.xml"/>
    </input>

    <output>
        <output-file value="ottawa_sumo/ottawa.poly.xml"/>
    </output>

</polyconvertConfiguration>
-->

<additional xmlns:xsi="http://www.w3.org/2001/XMLSchema-instance" xsi:noNamespaceSchemaLocation="http://sumo.dlr.de/xsd/additional_file.xsd">
    <location netOffset="-444587.24,-5028990.62" convBoundary="-401.78,-3056.21,10789.98,6729.77" origBoundary="-75.713429,45.384783,-75.570892,45.473585" projParameter="+proj=utm +zone=18 +ellps=WGS84 +datum=WGS84 +units=m +no_defs"/>

    <poly id="1002820941" type="leisure" color="207,245,201" fill="1" layer="-2.00" shape="1215.235764,1209.438440 1215.449174,1205.147998 1219.158230,1203.393946 1221.061130,1204.499705 1221.046006,1206.377488 1223.909468,1208.186040 1223.720362,1211.665215 1222.472847,1212.164815 1219.034841,1209.961238 1217.493103,1210.818905 1215.235764,1209.438440"/>
    <poly id="1002820942" type="leisure" color="207,245,201" fill="1" layer="-2.00" shape="1227.352883,1209.200762 1229.711955,1207.858314 1231.985320,1209.283087 1231.790032,1213.862242 1234.417738,1215.550614 1234.281934,1217.951624 1232.188187,1219.214013 1229.411840,1217.526922 1227.784142,1218.396437 1225.786316,1217.169279 1226.060501,1212.667217 1227.221195,1212.079482 1227.352883,1209.200762"/>
    <poly id="1002820943" type="leisure" color="207,245,201" fill="1" layer="-2.00" shape="1235.214524,1213.588328 1235.290250,1212.387756 1237.188896,1211.182599 1238.848312,1212.179357 1240.350649,1211.288703 1242.316703,1212.460588 1242.194610,1218.272363 1239.843842,1219.670287 1237.475264,1218.090785 1237.581191,1214.945638 1235.214524,1213.588328"/>
    <poly id="1002820951" type="leisure" color="207,245,201" fill="1" layer="-2.00" shape="1166.105169,1204.373273 1161.143769,1201.527349 1161.264730,1198.315408 1166.278704,1195.461257 1168.920262,1196.938385 1168.869508,1202.849542 1166.105169,1204.373273"/>
    <poly id="1007815806" type="commercial" color="209,209,204" fill="1" layer="-3.00" shape="866.053655,2447.964830 886.377364,2459.843406 896.740329,2465.975408 888.160233,2480.526636 903.688540,2514.045465 904.358846,2515.572892 811.382442,2560.498747 789.588503,2515.313065 781.164064,2518.930451 777.913196,2511.192512 785.713163,2507.724981 848.220604,2478.839775 850.098937,2475.345924 866.053655,2447.964830"/>
    <poly id="1018946848" type="parking" color="184,184,179" fill="1" layer="-1.00" shape="991.986027,1549.154224 1000.521866,1541.969753 1007.181955,1547.667339 1028.344378,1531.374325 1034.832522,1529.851676 1038.539476,1534.219351 1025.889418,1551.472009 1020.535892,1551.207197 1011.067024,1559.966273 1015.521043,1565.682942 1011.149346,1569.487161 991.986027,1549.154224"/>
    <poly id="1034933397" type="commercial" color="209,209,204" fill="1" layer="-3.00" shape="775.816021,2377.819171 727.259376,2353.198266 727.716515,2277.110225 732.223994,2280.004188 807.995124,2319.876740 775.816021,2377.819171"/>
    <poly id="1034933398" type="commercial" color="209,209,204" fill="1" layer="-3.00" shape="844.640915,2108.561093 814.660418,2091.011255 848.320204,2033.100679 879.074636,2053.277133 844.640915,2108.561093"/>
    <poly id="1043826929" type="building" color="255,230,230" fill="1" layer="-1.00" shape="927.234763,1968.698581 920.882843,1965.120498 927.607712,1953.951857 933.906230,1957.685955 927.234763,1968.698581"/>
    <poly id="1055101725" type="shop" color="237,199,255" fill="1" layer="-1.00" shape="1310.044318,1438.618370 1301.233662,1442.105021 1295.685135,1426.453782 1304.413770,1423.434465 1310.044318,1438.618370"/>
    <poly id="1055101726" type="shop" color="237,199,255" fill="1" layer="-1.00" shape="1366.717401,1413.010764 1363.372595,1418.905772 1351.450849,1411.786450 1355.286022,1406.509404 1366.717401,1413.010764"/>
    <poly id="1064214033" type="commercial" color="209,209,204" fill="1" layer="-3.00" shape="1604.751462,2282.057194 1613.021176,2270.320561 1609.780287,2250.838453 1589.959401,2208.955229 1578.762149,2195.796362 1573.830072,2195.349716 1546.130478,2240.150588 1546.666307,2243.345789 1576.389000,2261.267921 1604.751462,2282.057194"/>
    <poly id="107621859" type="building" color="255,230,230" fill="1" layer="-1.00" shape="347.781588,906.634098 352.422825,909.482191 353.280512,909.141375 365.239077,889.815778 364.839146,888.819341 312.139299,857.171507 311.279662,857.290137 302.330608,871.812012 299.556881,876.724876 299.801321,877.833775 328.456187,894.181819 347.781588,906.634098"/>
    <poly id="1079862193" type="parking" color="184,184,179" fill="1" layer="-1.00" shape="899.459011,462.715792 911.740303,441.510844 919.478408,445.954652 902.540650,475.210488 894.802471,470.755591 899.459011,462.715792"/>
    <poly id="1079862194" type="parking" color="184,184,179" fill="1" layer="-1.00" shape="1767.896237,690.737743 1783.637203,700.614011 1789.828870,690.806368 1774.087889,680.930085 1767.896237,690.737743"/>
    <poly id="1079862195" type="parking" color="184,184,179" fill="1" layer="-1.00" shape="1727.778734,657.559907 1756.472066,674.169610 1752.870760,680.355447 1724.169623,663.745827 1727.778734,657.559907"/>
    <poly id="1079862196" type="parking" color="184,184,179" fill="1" layer="-1.00" shape="1674.824078,622.947580 1681.301682,611.815257 1690.816449,617.322538 1684.338738,628.443741 1674.824078,622.947580"/>
    <poly id="1079862201" type="parking" color="184,184,179" fill="1" layer="-1.00" shape="1393.450461,329.198765 1402.630772,313.887691 1408.309344,317.260954 1399.129120,332.583130 1393.450461,329.198765"/>
    <poly id="1096807146" type="building" color="255,230,230" fill="1" layer="-1.00" shape="1504.095349,1543.056816 1503.207713,1544.464328 1521.006184,1556.355493 1538.548867,1558.482883 1546.091209,1559.462680 1551.335041,1550.573933 1553.846319,1552.396757 1557.276913,1552.856248 1560.046203,1552.832544 1563.787835,1552.156119 1567.528829,1550.490878 1570.108837,1547.546772 1571.390251,1544.613779 1571.844657,1541.032352 1571.814045,1537.455076 1570.645476,1534.376393 1569.160352,1531.789276 1567.355031,1530.182612 1564.521584,1528.195885 1565.439197,1526.632580 1547.995399,1515.960394 1531.797405,1504.599855 1526.823067,1501.109358 1520.142531,1512.154731 1517.121692,1510.214071 1511.614821,1506.661485 1507.447272,1513.330079 1501.089824,1523.728304 1501.115352,1525.794614 1502.373435,1529.272490 1496.611043,1538.810123 1504.095349,1543.056816"/>
    <poly id="1096807146#1" type="tourism" color="207,245,201" fill="1" layer="-2.00" shape="1504.095349,1543.056816 1503.207713,1544.464328 1521.006184,1556.355493 1538.548867,1558.482883 1546.091209,1559.462680 1551.335041,1550.573933 1553.846319,1552.396757 1557.276913,1552.856248 1560.046203,1552.832544 1563.787835,1552.156119 1567.528829,1550.490878 1570.108837,1547.546772 1571.390251,1544.613779 1571.844657,1541.032352 1571.814045,1537.455076 1570.645476,1534.376393 1569.160352,1531.789276 1567.355031,1530.182612 1564.521584,1528.195885 1565.439197,1526.632580 1547.995399,1515.960394 1531.797405,1504.599855 1526.823067,1501.109358 1520.142531,1512.154731 1517.121692,1510.214071 1511.614821,1506.661485 1507.447272,1513.330079 1501.089824,1523.728304 1501.115352,1525.794614 1502.373435,1529.272490 1496.611043,1538.810123 1504.095349,1543.056816"/>
    <poly id="1096807147" type="building" color="255,230,230" fill="1" layer="-1.00" shape="1512.546705,1529.596414 1509.869603,1527.597262 1517.664135,1515.086876 1527.918478,1521.220854 1532.833090,1512.257140 1545.749752,1519.579379 1533.255729,1539.685022 1513.580981,1527.954330 1512.546705,1529.596414"/>
    <poly id="1096807147#1" type="tourism" color="207,245,201" fill="1" layer="-2.00" shape="1512.546705,1529.596414 1509.869603,1527.597262 1517.664135,1515.086876 1527.918478,1521.220854 1532.833090,1512.257140 1545.749752,1519.579379 1533.255729,1539.685022 1513.580981,1527.954330 1512.546705,1529.596414"/>
    <poly id="1098012913" type="building" color="255,230,230" fill="1" layer="-1.00" shape="866.382400,1166.711365 892.459356,1182.039908 896.461832,1184.360632 901.785262,1187.436531 906.747082,1190.315580 911.396158,1193.219562 926.502362,1202.054818 939.518144,1179.999127 955.385970,1152.985774 911.427573,1127.290289 895.896589,1118.214319 881.909811,1141.978401 871.421614,1158.657099 866.382400,1166.711365"/>
    <poly id="1110379246" type="water" color="181,209,209" fill="0" layer="-4.00" shape="1078.122594,1345.356454 1023.008714,1389.274207"/>
    <poly id="1110379247" type="water" color="181,209,209" fill="0" layer="-4.00" shape="1078.884080,1344.749918 1078.122594,1345.356454"/>
    <poly id="1117689261" type="building" color="255,230,230" fill="1" layer="-1.00" shape="682.957009,1394.156049 683.271965,1395.286569 685.072722,1396.337504 694.448139,1401.144537 698.795324,1393.629441 688.303527,1390.898643 689.799366,1388.374685 690.386189,1387.480750 691.157578,1386.218567 690.965474,1384.820328 689.950790,1384.195861 690.374489,1383.436669 679.656073,1377.141421 679.193260,1377.900953 677.872314,1377.145827 676.420700,1377.558428 675.634344,1378.898516 675.094943,1379.847592 673.761847,1382.192371 666.525257,1375.033576 662.283076,1382.025593 670.462188,1387.809605 672.388215,1388.870557 673.645892,1388.648518 674.309011,1387.531710 676.121338,1384.516138 676.745343,1383.399670 676.303476,1382.070267 676.864317,1380.887687 678.190277,1380.420626 679.243691,1381.000314 679.701203,1382.329581 680.833718,1383.008574 684.199676,1385.012498 685.316544,1385.691628 686.588515,1385.313922 687.877296,1385.969336 688.132083,1387.378140 687.429363,1388.439739 686.109873,1388.751196 685.415750,1389.901603 683.635679,1393.027996 682.957009,1394.156049"/>
    <poly id="1132239035" type="parking" color="184,184,179" fill="1" layer="-1.00" shape="1273.204537,693.073998 1293.203001,704.790080 1298.925236,695.074861 1278.926753,683.358761 1273.204537,693.073998"/>
    <poly id="1144573698" type="building" color="255,230,230" fill="1" layer="-1.00" shape="1049.072587,781.966937 1059.558604,762.188790 1042.171644,753.006267 1026.670425,744.740767 1016.119968,764.297320 1049.072587,781.966937"/>
    <poly id="1144573699" type="building" color="255,230,230" fill="1" layer="-1.00" shape="1048.739059,740.639243 1058.994557,721.340834 1036.260641,709.126936 1025.657532,727.128474 1048.739059,740.639243"/>
    <poly id="1144573700" type="building" color="255,230,230" fill="1" layer="-1.00" shape="1059.558604,762.188790 1076.381482,730.512294 1058.994557,721.340834 1048.739059,740.639243 1042.171644,753.006267 1059.558604,762.188790"/>
    <poly id="1144573701" type="building" color="255,230,230" fill="1" layer="-1.00" shape="1105.903814,722.424663 1118.244023,700.775189 1065.601760,670.987138 1053.277317,692.636581 1105.903814,722.424663"/>
    <poly id="1228470395" type="building" color="255,230,230" fill="1" layer="-1.00" shape="218.482330,686.803263 245.401879,702.332883 252.440416,706.393144 262.445647,689.162124 269.413946,677.168504 279.797001,659.289800 245.909656,639.754702 215.259043,621.724630 204.788188,639.393113 235.446669,657.434176 228.495326,669.572121 218.482330,686.803263"/>
    <poly id="1228470398" type="building" color="255,230,230" fill="1" layer="-1.00" shape="207.581496,551.963156 247.654608,575.488015 260.183964,554.290687 220.110768,530.765748 207.581496,551.963156"/>
    <poly id="1228470399" type="building" color="255,230,230" fill="1" layer="-1.00" shape="227.238533,601.198677 260.012954,621.387833 270.236165,627.231201 273.254738,627.926930 276.467781,627.598800 279.249861,626.307843 281.033522,624.481225 282.674114,622.400321 284.270876,620.675334 286.490604,619.500410 288.707470,618.892142 290.545436,618.798272 293.848246,618.891559 296.196330,618.970989 298.470398,618.639984 300.796413,617.986323 302.605459,617.270527 304.324453,616.099994 305.894110,614.852997 307.111783,613.620192 309.003728,611.648199 320.535969,591.837410 309.077075,585.171499 309.809371,583.909614 269.355312,560.632130 253.782491,586.333600 249.859545,587.801223 240.365546,582.140371 238.643762,584.777517 238.116920,584.482155 233.974321,591.240260 232.620174,591.185470 228.575694,597.531633 228.850478,598.529159 227.238533,601.198677"/>
    <poly id="1228470400" type="landuse" color="194,194,130" fill="1" layer="-3.00" shape="222.920205,599.514432 238.916147,573.898056 203.276843,552.734201 218.988335,526.798071 290.987340,570.086453 322.260799,589.544682 292.448299,641.302367 222.920205,599.514432"/>
    <poly id="123936823" type="building" color="255,230,230" fill="1" layer="-1.00" shape="1729.819644,1243.491393 1736.048342,1247.271330 1738.390089,1248.473494 1757.428366,1259.832566 1762.435151,1262.534133 1785.411699,1276.081783 1775.392840,1292.999369 1719.808323,1260.364563 1729.819644,1243.491393"/>
    <poly id="1266657066" type="man_made" color="255,230,230" fill="1" layer="-1.00" shape="715.160798,1767.807449 717.620283,1772.652420 711.822398,1776.147051 706.821459,1780.423596 700.326618,1787.435185 696.482083,1791.546136 689.567649,1798.883586 682.396344,1806.367715 673.870708,1815.541306 665.157082,1826.483098 661.629169,1831.013512 658.326102,1837.108537 654.887874,1846.548971 652.610662,1855.457113 651.041414,1862.114792 650.134930,1866.722389 649.540862,1871.271715 643.453714,1870.280327 645.312737,1860.964737 647.323090,1851.058979 650.338212,1841.544451 654.132897,1832.611990 658.122894,1826.344328 662.371526,1820.129969 668.604087,1812.653986 682.534778,1798.000380 691.773557,1788.065092 696.905431,1782.654135 705.614350,1773.856737 712.129593,1769.189272 715.160798,1767.807449"/>
    <poly id="1271183881" type="landuse" color="194,194,130" fill="1" layer="-3.00" shape="566.260368,451.633665 575.286452,435.933825 616.682234,459.571708 604.922508,480.350514 597.790356,476.324006 599.625812,473.241557 599.468361,473.131824 599.700184,472.796494 598.992136,472.358245 598.760312,472.693576 576.107543,459.225134 577.110173,457.549842 573.650090,455.580120 574.344591,454.463032 568.996042,451.287625 568.069719,452.740046 566.260368,451.633665"/>
    <poly id="1271183892" type="landuse" color="194,194,130" fill="1" layer="-3.00" shape="553.190701,478.312486 546.166119,495.605917 583.768820,517.698975 595.466778,497.031768 588.004474,492.830381 586.978954,494.572533 563.776606,480.886716 562.620404,482.896660 559.317783,481.036678 558.932382,481.706660 553.190701,478.312486"/>
    <poly id="1271183893" type="landuse" color="194,194,130" fill="1" layer="-3.00" shape="539.116311,437.304553 548.430957,420.602224 567.910517,431.776149 557.880559,449.006871 551.100625,444.999566 550.613004,444.714946 552.865340,440.984448 550.741173,439.669717 551.204818,438.999053 545.069945,435.386106 542.679292,439.406683 539.116311,437.304553"/>
    <poly id="1271189134" type="building" color="255,230,230" fill="1" layer="-1.00" shape="536.933606,472.354610 542.508281,475.439134 544.002836,472.748504 546.943422,474.367205 548.969521,470.716449 540.454254,466.013219 536.933606,472.354610"/>
    <poly id="1273366595" type="leisure" color="207,245,201" fill="1" layer="-2.00" shape="477.979041,637.913644 477.138831,639.365328 478.672269,640.240774 473.599818,648.962261 471.712363,647.867700 470.887513,649.285919 469.137848,652.323219 472.189071,654.074243 473.029278,652.622559 474.562810,653.509113 475.194776,652.403668 486.747158,659.057950 490.693894,652.246173 492.722856,653.417278 495.652249,648.380932 496.682426,648.971904 496.523951,646.951197 495.620384,645.625835 492.452151,645.709033 487.536560,642.818789 487.187039,641.321938 484.736674,641.176667 477.979041,637.913644"/>
    <poly id="1273366596" type="building" color="255,230,230" fill="1" layer="-1.00" shape="500.840064,655.568526 498.268245,654.057733 492.616544,663.650870 494.535577,664.778494 495.196184,665.161592 500.840064,655.568526"/>
    <poly id="1273366596#1" type="man_made" color="255,230,230" fill="1" layer="-1.00" shape="500.840064,655.568526 498.268245,654.057733 492.616544,663.650870 494.535577,664.778494 495.196184,665.161592 500.840064,655.568526"/>
    <poly id="1273386697" type="amenity" color="237,199,199" fill="1" layer="-1.00" shape="418.205666,591.205418 428.291197,573.240689 482.968163,603.505679 473.915528,619.694752 470.933892,625.020434 468.585942,625.851989 469.492169,628.377246 465.966416,633.218823 463.621057,633.450397 463.895189,636.170048 460.580693,641.009784 455.142015,642.734942 448.810807,639.023811 448.579475,636.725981 438.695988,631.234891 450.861303,609.507831 418.205666,591.205418"/>
    <poly id="128127767" type="amenity" color="237,199,199" fill="1" layer="-1.00" shape="680.371065,1396.378400 681.526466,1396.990532 682.860440,1396.545623 683.271965,1395.286569 682.957009,1394.156049 683.635679,1393.027996 685.415750,1389.901603 686.109873,1388.751196 687.429363,1388.439739 688.132083,1387.378140 687.877296,1385.969336 686.588515,1385.313922 685.316544,1385.691628 684.199676,1385.012498 680.833718,1383.008574 679.701203,1382.329581 679.243691,1381.000314 678.190277,1380.420626 676.864317,1380.887687 676.303476,1382.070267 676.745343,1383.399670 676.121338,1384.516138 674.309011,1387.531710 673.645892,1388.648518 672.388215,1388.870557 671.543233,1389.766740 671.750988,1391.164841 672.844966,1391.910831 673.829415,1391.757831 675.228975,1392.556714 678.673162,1394.559955 680.002023,1395.326123 680.371065,1396.378400"/>
    <poly id="128127767#1" type="building" color="255,230,230" fill="1" layer="-1.00" shape="680.371065,1396.378400 681.526466,1396.990532 682.860440,1396.545623 683.271965,1395.286569 682.957009,1394.156049 683.635679,1393.027996 685.415750,1389.901603 686.109873,1388.751196 687.429363,1388.439739 688.132083,1387.378140 687.877296,1385.969336 686.588515,1385.313922 685.316544,1385.691628 684.199676,1385.012498 680.833718,1383.008574 679.701203,1382.329581 679.243691,1381.000314 678.190277,1380.420626 676.864317,1380.887687 676.303476,1382.070267 676.745343,1383.399670 676.121338,1384.516138 674.309011,1387.531710 673.645892,1388.648518 672.388215,1388.870557 671.543233,1389.766740 671.750988,1391.164841 672.844966,1391.910831 673.829415,1391.757831 675.228975,1392.556714 678.673162,1394.559955 680.002023,1395.326123 680.371065,1396.378400"/>
    <poly id="128127767#2" type="man_made" color="255,230,230" fill="1" layer="-1.00" shape="680.371065,1396.378400 681.526466,1396.990532 682.860440,1396.545623 683.271965,1395.286569 682.957009,1394.156049 683.635679,1393.027996 685.415750,1389.901603 686.109873,1388.751196 687.429363,1388.439739 688.132083,1387.378140 687.877296,1385.969336 686.588515,1385.313922 685.316544,1385.691628 684.199676,1385.012498 680.833718,1383.008574 679.701203,1382.329581 679.243691,1381.000314 678.190277,1380.420626 676.864317,1380.887687 676.303476,1382.070267 676.745343,1383.399670 676.121338,1384.516138 674.309011,1387.531710 673.645892,1388.648518 672.388215,1388.870557 671.543233,1389.766740 671.750988,1391.164841 672.844966,1391.910831 673.829415,1391.757831 675.228975,1392.556714 678.673162,1394.559955 680.002023,1395.326123 680.371065,1396.378400"/>
    <poly id="128127770" type="amenity" color="237,199,199" fill="1" layer="-1.00" shape="645.879250,1455.108084 650.450450,1461.656761 652.113150,1469.319572 650.725086,1477.031156 646.510901,1483.634079 640.095749,1488.145190 632.451693,1489.889407 624.710921,1488.612449 618.048607,1484.504067 613.440306,1478.189055 611.574745,1470.594682 612.751349,1462.862710 616.784520,1456.139126 623.080796,1451.451261 630.691864,1449.507333 638.830881,1450.691950 640.102236,1448.447693 647.320875,1452.651250 645.879250,1455.108084"/>
    <poly id="128127770#1" type="building" color="255,230,230" fill="1" layer="-1.00" shape="645.879250,1455.108084 650.450450,1461.656761 652.113150,1469.319572 650.725086,1477.031156 646.510901,1483.634079 640.095749,1488.145190 632.451693,1489.889407 624.710921,1488.612449 618.048607,1484.504067 613.440306,1478.189055 611.574745,1470.594682 612.751349,1462.862710 616.784520,1456.139126 623.080796,1451.451261 630.691864,1449.507333 638.830881,1450.691950 640.102236,1448.447693 647.320875,1452.651250 645.879250,1455.108084"/>
    <poly id="128127770#2" type="historic" color="128,255,128" fill="1" layer="-1.00" shape="645.879250,1455.108084 650.450450,1461.656761 652.113150,1469.319572 650.725086,1477.031156 646.510901,1483.634079 640.095749,1488.145190 632.451693,1489.889407 624.710921,1488.612449 618.048607,1484.504067 613.440306,1478.189055 611.574745,1470.594682 612.751349,1462.862710 616.784520,1456.139126 623.080796,1451.451261 630.691864,1449.507333 638.830881,1450.691950 640.102236,1448.447693 647.320875,1452.651250 645.879250,1455.108084"/>
    <poly id="128138694" type="building" color="255,230,230" fill="1" layer="-1.00" shape="1160.995641,1503.753098 1144.768526,1531.735650 1145.716478,1535.516113 1176.713747,1554.658672 1209.113623,1502.338451 1191.065145,1491.483576 1183.870813,1503.667002 1181.763546,1502.440802 1175.849268,1512.457791 1160.995641,1503.753098"/>
    <poly id="128138699" type="building" color="255,230,230" fill="1" layer="-1.00" shape="1191.065145,1491.483576 1183.870813,1503.667002 1181.763546,1502.440802 1175.849268,1512.457791 1160.995641,1503.753098 1174.104120,1481.541540 1191.065145,1491.483576"/>
    <poly id="128142335" type="building" color="255,230,230" fill="1" layer="-1.00" shape="830.513488,1515.288570 822.745494,1506.356547 827.901746,1501.912098 834.510003,1496.199584 839.883579,1491.553273 847.643646,1500.474275 842.176968,1505.210271 835.568618,1510.911667 830.513488,1515.288570"/>
    <poly id="128142335#1" type="historic" color="128,255,128" fill="1" layer="-1.00" shape="830.513488,1515.288570 822.745494,1506.356547 827.901746,1501.912098 834.510003,1496.199584 839.883579,1491.553273 847.643646,1500.474275 842.176968,1505.210271 835.568618,1510.911667 830.513488,1515.288570"/>
    <poly id="128142335#2" type="tourism" color="207,245,201" fill="1" layer="-2.00" shape="830.513488,1515.288570 822.745494,1506.356547 827.901746,1501.912098 834.510003,1496.199584 839.883579,1491.553273 847.643646,1500.474275 842.176968,1505.210271 835.568618,1510.911667 830.513488,1515.288570"/>
    <poly id="128147952" type="building" color="255,230,230" fill="1" layer="-1.00" shape="1262.607296,1653.745594 1284.920606,1666.619394 1236.323227,1750.309981 1214.010107,1737.436354 1219.514218,1727.956226 1262.607296,1653.745594"/>
    <poly id="128147952#1" type="tourism" color="207,245,201" fill="1" layer="-2.00" shape="1262.607296,1653.745594 1284.920606,1666.619394 1236.323227,1750.309981 1214.010107,1737.436354 1219.514218,1727.956226 1262.607296,1653.745594"/>
    <poly id="128148858" type="building" color="255,230,230" fill="1" layer="-1.00" shape="1209.113623,1502.338451 1176.713747,1554.658672 1228.694176,1586.630894 1260.392178,1535.450242 1261.094403,1534.322050 1220.879960,1509.581057 1209.113623,1502.338451"/>
    <poly id="128191525" type="parking" color="184,184,179" fill="1" layer="-1.00" shape="1150.091609,1702.634076 1171.405195,1664.874974 1175.406478,1658.029815 1183.575657,1662.759082 1188.393908,1654.484761 1193.962007,1646.070657 1198.370657,1638.377614 1204.552134,1627.602835 1206.823172,1626.050036 1209.698575,1624.725349 1212.891866,1623.975664 1216.024036,1624.304215 1219.695642,1626.405782 1221.180125,1628.903941 1222.251818,1631.616753 1222.490017,1634.747829 1221.257537,1637.891572 1218.767511,1641.268354 1216.056009,1642.547184 1212.712589,1644.031445 1216.508416,1646.931887 1214.932029,1650.111925 1182.873700,1706.573369 1175.784178,1718.178169 1168.698516,1713.895097 1150.091609,1702.634076"/>
    <poly id="128191525#1" type="building" color="255,230,230" fill="1" layer="-1.00" shape="1150.091609,1702.634076 1171.405195,1664.874974 1175.406478,1658.029815 1183.575657,1662.759082 1188.393908,1654.484761 1193.962007,1646.070657 1198.370657,1638.377614 1204.552134,1627.602835 1206.823172,1626.050036 1209.698575,1624.725349 1212.891866,1623.975664 1216.024036,1624.304215 1219.695642,1626.405782 1221.180125,1628.903941 1222.251818,1631.616753 1222.490017,1634.747829 1221.257537,1637.891572 1218.767511,1641.268354 1216.056009,1642.547184 1212.712589,1644.031445 1216.508416,1646.931887 1214.932029,1650.111925 1182.873700,1706.573369 1175.784178,1718.178169 1168.698516,1713.895097 1150.091609,1702.634076"/>
    <poly id="128192108" type="parking" color="184,184,179" fill="1" layer="-1.00" shape="989.053916,1546.635308 947.155048,1499.145436 976.529264,1473.470667 1010.857658,1512.226760 1001.329947,1520.519722 1009.613646,1530.314112 989.053916,1546.635308"/>
    <poly id="128237375" type="commercial" color="209,209,204" fill="1" layer="-3.00" shape="771.196299,2514.172897 777.913196,2511.192512 785.713163,2507.724981 848.220604,2478.839775 850.098937,2475.345924 866.053655,2447.964830 851.878497,2438.821694 811.184766,2415.176331 804.464151,2411.434915 777.866766,2396.877927 772.252259,2395.304577 761.793728,2393.506667 750.753667,2394.102565 744.705278,2395.710586 740.551604,2399.313128 737.654541,2406.193431 737.590327,2415.904486 739.536985,2427.475722 744.051876,2442.035557 750.227843,2462.313931 752.670045,2468.803408 759.569806,2488.664416 762.331712,2495.040014 771.196299,2514.172897"/>
    <poly id="128240048" type="building" color="255,230,230" fill="1" layer="-1.00" shape="841.302501,2409.948613 852.771058,2390.217040 866.898640,2398.371766 855.422233,2418.103381 853.016528,2416.713226 841.302501,2409.948613"/>
    <poly id="128240574" type="building" color="255,230,230" fill="1" layer="-1.00" shape="792.716774,2492.720660 811.572556,2484.179702 802.928798,2465.244835 801.050996,2466.094419 796.553496,2456.222985 798.384563,2455.396027 789.660870,2436.272994 787.783157,2437.133691 776.914529,2413.329601 762.071351,2420.058129 773.235220,2444.526254 771.037979,2445.523057 779.339060,2463.716462 781.333703,2462.810304 786.126029,2473.301350 784.248232,2474.150939 792.716774,2492.720660"/>
    <poly id="128240576" type="leisure" color="207,245,201" fill="1" layer="-2.00" shape="993.688675,2381.730114 985.647532,2377.244422 996.132354,2358.577120 1004.165691,2363.062892 993.688675,2381.730114"/>
    <poly id="128240577" type="leisure" color="207,245,201" fill="1" layer="-2.00" shape="966.133342,2371.235921 998.332488,2389.556103 990.688203,2402.910275 958.481184,2384.579090 966.133342,2371.235921"/>
    <poly id="128240577#1" type="sport" color="79,230,125" fill="1" layer="-2.00" shape="966.133342,2371.235921 998.332488,2389.556103 990.688203,2402.910275 958.481184,2384.579090 966.133342,2371.235921"/>
    <poly id="128240579" type="building" color="255,230,230" fill="1" layer="-1.00" shape="833.219116,2448.382980 830.008543,2440.777990 822.013682,2438.025328 813.862980,2441.651403 811.302087,2449.417586 814.724733,2457.120719 823.142911,2459.980802 830.248181,2456.674902 833.219116,2448.382980"/>
    <poly id="128240582" type="building" color="255,230,230" fill="1" layer="-1.00" shape="1008.875658,2359.544599 999.040446,2353.841153 1002.979376,2347.096399 1012.814595,2352.799852 1008.875658,2359.544599"/>
    <poly id="128241123" type="building" color="255,230,230" fill="1" layer="-1.00" shape="794.965841,2416.617059 797.166183,2415.975771 799.271489,2417.001870 799.814551,2419.185905 798.783698,2421.183618 796.482639,2421.936884 794.476316,2420.598836 793.934121,2418.514787 794.965841,2416.617059"/>
    <poly id="128241131" type="building" color="255,230,230" fill="1" layer="-1.00" shape="839.937410,2460.879446 842.152199,2461.904609 842.584871,2463.989612 841.555843,2466.198400 838.939132,2466.632188 837.357904,2465.601529 836.703523,2463.207359 837.844753,2461.308688 839.937410,2460.879446"/>
    <poly id="128241349" type="commercial" color="209,209,204" fill="1" layer="-3.00" shape="1022.670162,2517.359647 1055.460194,2459.335440 1107.554932,2489.016861 1074.510791,2545.731962 1022.670162,2517.359647"/>
    <poly id="128241350" type="building" color="255,230,230" fill="1" layer="-1.00" shape="1079.884686,2526.720086 1097.761334,2495.345468 1073.786181,2481.775649 1061.306058,2503.993173 1058.319421,2502.352421 1056.162953,2506.259697 1050.502543,2502.975496 1046.475602,2507.676669 1046.790389,2507.896157 1046.014944,2508.680587 1050.831290,2513.860847 1053.510819,2516.170874 1056.268562,2518.480225 1059.101639,2520.455615 1062.168404,2522.317882 1065.233248,2523.957960 1071.750173,2526.790358 1071.978104,2526.010661 1072.604795,2526.116351 1074.146091,2523.436539 1079.884686,2526.720086"/>
    <poly id="1282583148" type="historic" color="128,255,128" fill="1" layer="-1.00" shape="692.497149,1525.853444 692.192329,1521.389717 696.836717,1521.071566 697.141630,1525.546403 692.497149,1525.853444"/>
    <poly id="1282583149" type="historic" color="128,255,128" fill="1" layer="-1.00" shape="741.517112,1512.117058 737.941961,1507.637305 742.627229,1503.919053 746.202379,1508.398809 741.517112,1512.117058"/>
    <poly id="1282583150" type="historic" color="128,255,128" fill="1" layer="-1.00" shape="564.262213,1466.607222 562.586827,1461.988791 567.149324,1460.349122 568.824707,1464.967554 564.262213,1466.607222"/>
    <poly id="1282583167" type="historic" color="128,255,128" fill="1" layer="-1.00" shape="968.536015,1367.057909 971.304945,1366.078458 970.214282,1362.999208 967.437431,1363.967618 968.536015,1367.057909"/>